

        *** GPGPU-Sim Simulator Version 3.2.2  [build 17315] ***


GPGPU-Sim PTX: simulation mode 0 (can change with PTX_SIM_MODE_FUNC environment variable:
               1=functional simulation only, 0=detailed performance simulator)
GPGPU-Sim: Configuration options:

-network_mode                           1 # Interconnection network mode
-inter_config_file   config_fermi_islip.icnt # Interconnection network config file
-gpgpu_ptx_use_cuobjdump                    1 # Use cuobjdump to extract ptx and sass from binaries
-gpgpu_experimental_lib_support                    0 # Try to extract code from cuda libraries [Broken because of unknown cudaGetExportTable]
-gpgpu_ptx_convert_to_ptxplus                    0 # Convert SASS (native ISA) to ptxplus and run ptxplus
-gpgpu_ptx_force_max_capability                   20 # Force maximum compute capability
-gpgpu_ptx_inst_debug_to_file                    0 # Dump executed instructions' debug information to file
-gpgpu_ptx_inst_debug_file       inst_debug.txt # Executed instructions' debug output file
-gpgpu_ptx_inst_debug_thread_uid                    1 # Thread UID for executed instructions' debug output
-gpgpu_simd_model                       1 # 1 = post-dominator
-gpgpu_shader_core_pipeline              1536:32 # shader core pipeline config, i.e., {<nthread>:<warpsize>}
-gpgpu_tex_cache:l1  4:128:24,L:R:m:N,F:128:4,128:2 # per-shader L1 texture cache  (READ-ONLY) config  {<nsets>:<bsize>:<assoc>,<rep>:<wr>:<alloc>:<wr_alloc>,<mshr>:<N>:<merge>,<mq>:<rf>}
-gpgpu_const_cache:l1 64:64:2,L:R:f:N,A:2:32,4 # per-shader L1 constant memory cache  (READ-ONLY) config  {<nsets>:<bsize>:<assoc>,<rep>:<wr>:<alloc>:<wr_alloc>,<mshr>:<N>:<merge>,<mq>} 
-gpgpu_cache:il1     4:128:4,L:R:f:N,A:2:32,4 # shader L1 instruction cache config  {<nsets>:<bsize>:<assoc>,<rep>:<wr>:<alloc>:<wr_alloc>,<mshr>:<N>:<merge>,<mq>} 
-gpgpu_cache:dl1     32:128:4,L:L:m:N,A:32:8,8 # per-shader L1 data cache config  {<nsets>:<bsize>:<assoc>,<rep>:<wr>:<alloc>:<wr_alloc>,<mshr>:<N>:<merge>,<mq> | none}
-gpgpu_cache:dl1PrefL1                 none # per-shader L1 data cache config  {<nsets>:<bsize>:<assoc>,<rep>:<wr>:<alloc>:<wr_alloc>,<mshr>:<N>:<merge>,<mq> | none}
-gpgpu_cache:dl1PreShared                 none # per-shader L1 data cache config  {<nsets>:<bsize>:<assoc>,<rep>:<wr>:<alloc>:<wr_alloc>,<mshr>:<N>:<merge>,<mq> | none}
-gmem_skip_L1D                          0 # global memory access skip L1D cache (implements -Xptxas -dlcm=cg, default=no skip)
-gpgpu_perfect_mem                      0 # enable perfect memory mode (no cache miss)
-n_regfile_gating_group                    4 # group of lanes that should be read/written together)
-gpgpu_clock_gated_reg_file                    0 # enable clock gated reg file for power calculations
-gpgpu_clock_gated_lanes                    0 # enable clock gated lanes for power calculations
-gpgpu_shader_registers                32768 # Number of registers per shader core. Limits number of concurrent CTAs. (default 8192)
-gpgpu_shader_cta                       8 # Maximum number of concurrent CTAs in shader (default 8)
-gpgpu_n_clusters                      14 # number of processing clusters
-gpgpu_n_cores_per_cluster                    1 # number of simd cores per cluster
-gpgpu_n_cluster_ejection_buffer_size                    8 # number of packets in ejection buffer
-gpgpu_n_ldst_response_buffer_size                    2 # number of response packets in ld/st unit ejection buffer
-gpgpu_shmem_size                   16384 # Size of shared memory per shader core (default 16kB)
-gpgpu_shmem_size                   49152 # Size of shared memory per shader core (default 16kB)
-gpgpu_shmem_size_PrefL1                16384 # Size of shared memory per shader core (default 16kB)
-gpgpu_shmem_size_PrefShared                16384 # Size of shared memory per shader core (default 16kB)
-gpgpu_shmem_num_banks                   32 # Number of banks in the shared memory in each shader core (default 16)
-gpgpu_shmem_limited_broadcast                    0 # Limit shared memory to do one broadcast per cycle (default on)
-gpgpu_shmem_warp_parts                    1 # Number of portions a warp is divided into for shared memory bank conflict check 
-gpgpu_warpdistro_shader                   -1 # Specify which shader core to collect the warp size distribution from
-gpgpu_warp_issue_shader                    0 # Specify which shader core to collect the warp issue distribution from
-gpgpu_local_mem_map                    1 # Mapping from local memory space address to simulated GPU physical address space (default = enabled)
-gpgpu_num_reg_banks                   16 # Number of register banks (default = 8)
-gpgpu_reg_bank_use_warp_id                    0 # Use warp ID in mapping registers to banks (default = off)
-gpgpu_operand_collector_num_units_sp                    6 # number of collector units (default = 4)
-gpgpu_operand_collector_num_units_sfu                    8 # number of collector units (default = 4)
-gpgpu_operand_collector_num_units_mem                    2 # number of collector units (default = 2)
-gpgpu_operand_collector_num_units_gen                    0 # number of collector units (default = 0)
-gpgpu_operand_collector_num_in_ports_sp                    2 # number of collector unit in ports (default = 1)
-gpgpu_operand_collector_num_in_ports_sfu                    1 # number of collector unit in ports (default = 1)
-gpgpu_operand_collector_num_in_ports_mem                    1 # number of collector unit in ports (default = 1)
-gpgpu_operand_collector_num_in_ports_gen                    0 # number of collector unit in ports (default = 0)
-gpgpu_operand_collector_num_out_ports_sp                    2 # number of collector unit in ports (default = 1)
-gpgpu_operand_collector_num_out_ports_sfu                    1 # number of collector unit in ports (default = 1)
-gpgpu_operand_collector_num_out_ports_mem                    1 # number of collector unit in ports (default = 1)
-gpgpu_operand_collector_num_out_ports_gen                    0 # number of collector unit in ports (default = 0)
-gpgpu_coalesce_arch                   13 # Coalescing arch (default = 13, anything else is off for now)
-gpgpu_num_sched_per_core                    2 # Number of warp schedulers per core
-gpgpu_max_insn_issue_per_warp                    1 # Max number of instructions that can be issued per warp in one cycle by scheduler
-gpgpu_simt_core_sim_order                    1 # Select the simulation order of cores in a cluster (0=Fix, 1=Round-Robin)
-gpgpu_pipeline_widths        2,1,1,2,1,1,2 # Pipeline widths ID_OC_SP,ID_OC_SFU,ID_OC_MEM,OC_EX_SP,OC_EX_SFU,OC_EX_MEM,EX_WB
-gpgpu_num_sp_units                     2 # Number of SP units (default=1)
-gpgpu_num_sfu_units                    1 # Number of SF units (default=1)
-gpgpu_num_mem_units                    1 # Number if ldst units (default=1) WARNING: not hooked up to anything
-gpgpu_scheduler                      gto # Scheduler configuration: < lrr | gto | two_level_active > If two_level_active:<num_active_warps>:<inner_prioritization>:<outer_prioritization>For complete list of prioritization values see shader.h enum scheduler_prioritization_typeDefault: gto
-gpgpu_dram_scheduler                    1 # 0 = fifo, 1 = FR-FCFS (defaul)
-gpgpu_dram_partition_queues              8:8:8:8 # i2$:$2d:d2$:$2i
-l2_ideal                               0 # Use a ideal L2 cache that always hit
-gpgpu_cache:dl2     64:128:8,L:B:m:W,A:32:4,4:0,32 # unified banked L2 data cache config  {<nsets>:<bsize>:<assoc>,<rep>:<wr>:<alloc>:<wr_alloc>,<mshr>:<N>:<merge>,<mq>}
-gpgpu_cache:dl2_texture_only                    0 # L2 cache used for texture only
-gpgpu_n_mem                            6 # number of memory modules (e.g. memory controllers) in gpu
-gpgpu_n_sub_partition_per_mchannel                    2 # number of memory subpartition in each memory module
-gpgpu_n_mem_per_ctrlr                    2 # number of memory chips per memory controller
-gpgpu_memlatency_stat                   14 # track and display latency statistics 0x2 enables MC, 0x4 enables queue logs
-gpgpu_frfcfs_dram_sched_queue_size                   16 # 0 = unlimited (default); # entries per chip
-gpgpu_dram_return_queue_size                  114 # 0 = unlimited (default); # entries per chip
-gpgpu_dram_buswidth                    4 # default = 4 bytes (8 bytes per cycle at DDR)
-gpgpu_dram_burst_length                    8 # Burst length of each DRAM request (default = 4 data bus cycle)
-dram_data_command_freq_ratio                    4 # Frequency ratio between DRAM data bus and command bus (default = 2 times, i.e. DDR)
-gpgpu_dram_timing_opt nbk=16:CCD=2:RRD=6:RCD=12:RAS=28:RP=12:RC=40: CL=12:WL=4:CDLR=5:WR=12:nbkgrp=4:CCDL=3:RTPL=2 # DRAM timing parameters = {nbk:tCCD:tRRD:tRCD:tRAS:tRP:tRC:CL:WL:tCDLR:tWR:nbkgrp:tCCDL:tRTPL}
-rop_latency                          120 # ROP queue latency (default 85)
-dram_latency                         100 # DRAM latency (default 30)
-gpgpu_mem_addr_mapping dramid@8;00000000.00000000.00000000.00000000.0000RRRR.RRRRRRRR.BBBCCCCB.CCSSSSSS # mapping memory address to dram model {dramid@<start bit>;<memory address map>}
-gpgpu_mem_addr_test                    0 # run sweep test to check address mapping for aliased address
-gpgpu_mem_address_mask                    1 # 0 = old addressing mask, 1 = new addressing mask, 2 = new add. mask + flipped bank sel and chip sel bits
-gpuwattch_xml_file         gpuwattch.xml # GPUWattch XML file
-power_simulation_enabled                    0 # Turn on power simulator (1=On, 0=Off)
-power_per_cycle_dump                    0 # Dump detailed power output each cycle
-power_trace_enabled                    0 # produce a file for the power trace (1=On, 0=Off)
-power_trace_zlevel                     6 # Compression level of the power trace output log (0=no comp, 9=highest)
-steady_power_levels_enabled                    0 # produce a file for the steady power levels (1=On, 0=Off)
-steady_state_definition                  8:4 # allowed deviation:number of samples
-gpgpu_max_cycle                        0 # terminates gpu simulation early (0 = no limit)
-gpgpu_max_insn                         0 # terminates gpu simulation early (0 = no limit)
-gpgpu_max_cta                          0 # terminates gpu simulation early (0 = no limit)
-gpgpu_runtime_stat                   500 # display runtime statistics such as dram utilization {<freq>:<flag>}
-liveness_message_freq                    1 # Minimum number of seconds between simulation liveness messages (0 = always print)
-gpgpu_flush_l1_cache                    0 # Flush L1 cache at the end of each kernel call
-gpgpu_flush_l2_cache                    0 # Flush L2 cache at the end of each kernel call
-gpgpu_deadlock_detect                    1 # Stop the simulation at deadlock (1=on (default), 0=off)
-gpgpu_ptx_instruction_classification                    0 # if enabled will classify ptx instruction types per kernel (Max 255 kernels now)
-gpgpu_ptx_sim_mode                     0 # Select between Performance (default) or Functional simulation (1)
-gpgpu_clock_domains 575.0:575.0:575.0:750.0 # Clock Domain Frequencies in MhZ {<Core Clock>:<ICNT Clock>:<L2 Clock>:<DRAM Clock>}
-gpgpu_max_concurrent_kernel                    8 # maximum kernels that can run concurrently on GPU
-gpgpu_cflog_interval                    0 # Interval between each snapshot in control flow logger
-visualizer_enabled                     0 # Turn on visualizer output (1=On, 0=Off)
-visualizer_outputfile                 NULL # Specifies the output log file for visualizer
-visualizer_zlevel                      6 # Compression level of the visualizer output log (0=no comp, 9=highest)
-trace_enabled                          0 # Turn on traces
-trace_components                    none # comma seperated list of traces to enable. Complete list found in trace_streams.tup. Default none
-trace_sampling_core                    0 # The core which is printed using CORE_DPRINTF. Default 0
-trace_sampling_memory_partition                   -1 # The memory partition which is printed using MEMPART_DPRINTF. Default -1 (i.e. all)
-enable_ptx_file_line_stats                    1 # Turn on PTX source line statistic profiling. (1 = On)
-ptx_line_stats_filename gpgpu_inst_stats.txt # Output file for PTX source line statistics.
-save_embedded_ptx                      0 # saves ptx files embedded in binary as <n>.ptx
-keep                                   0 # keep intermediate files created by GPGPU-Sim when interfacing with external programs
-gpgpu_ptx_save_converted_ptxplus                    0 # Saved converted ptxplus to a file
-ptx_opcode_latency_int         4,13,4,5,145 # Opcode latencies for integers <ADD,MAX,MUL,MAD,DIV>Default 1,1,19,25,145
-ptx_opcode_latency_fp          4,13,4,5,39 # Opcode latencies for single precision floating points <ADD,MAX,MUL,MAD,DIV>Default 1,1,1,1,30
-ptx_opcode_latency_dp         8,19,8,8,330 # Opcode latencies for double precision floating points <ADD,MAX,MUL,MAD,DIV>Default 8,8,8,8,335
-ptx_opcode_initiation_int            1,2,2,1,8 # Opcode initiation intervals for integers <ADD,MAX,MUL,MAD,DIV>Default 1,1,4,4,32
-ptx_opcode_initiation_fp            1,2,1,1,4 # Opcode initiation intervals for single precision floating points <ADD,MAX,MUL,MAD,DIV>Default 1,1,1,1,5
-ptx_opcode_initiation_dp         8,16,8,8,130 # Opcode initiation intervals for double precision floating points <ADD,MAX,MUL,MAD,DIV>Default 8,8,8,8,130
DRAM Timing Options:
nbk                                    16 # number of banks
CCD                                     2 # column to column delay
RRD                                     6 # minimal delay between activation of rows in different banks
RCD                                    12 # row to column delay
RAS                                    28 # time needed to activate row
RP                                     12 # time needed to precharge (deactivate) row
RC                                     40 # row cycle time
CDLR                                    5 # switching from write to read (changes tWTR)
WR                                     12 # last data-in to row precharge
CL                                     12 # CAS latency
WL                                      4 # Write latency
nbkgrp                                  4 # number of bank groups
CCDL                                    3 # column to column delay between accesses to different bank groups
RTPL                                    2 # read to precharge delay between accesses to different bank groups
Total number of memory sub partition = 12
addr_dec_mask[CHIP]  = 0000000000000000 	high:64 low:0
addr_dec_mask[BK]    = 000000000000e100 	high:16 low:8
addr_dec_mask[ROW]   = 000000000fff0000 	high:28 low:16
addr_dec_mask[COL]   = 0000000000001eff 	high:13 low:0
addr_dec_mask[BURST] = 000000000000003f 	high:6 low:0
sub_partition_id_mask = 0000000000000100
GPGPU-Sim uArch: clock freqs: 575000000.000000:575000000.000000:575000000.000000:750000000.000000
GPGPU-Sim uArch: clock periods: 0.00000000173913043478:0.00000000173913043478:0.00000000173913043478:0.00000000133333333333
*** Initializing Memory Statistics ***
GPGPU-Sim uArch: interconnect node map (shaderID+MemID to icntID)
GPGPU-Sim uArch: Memory nodes ID start from index: 14
GPGPU-Sim uArch:    0   1   2   3   4
GPGPU-Sim uArch:    5   6   7   8   9
GPGPU-Sim uArch:   10  11  12  13  14
GPGPU-Sim uArch:   15  16  17  18  19
GPGPU-Sim uArch:   20  21  22  23  24
GPGPU-Sim uArch:   25
GPGPU-Sim uArch: interconnect node reverse map (icntID to shaderID+MemID)
GPGPU-Sim uArch: Memory nodes start from ID: 14
GPGPU-Sim uArch:    0   1   2   3   4
GPGPU-Sim uArch:    5   6   7   8   9
GPGPU-Sim uArch:   10  11  12  13  14
GPGPU-Sim uArch:   15  16  17  18  19
GPGPU-Sim uArch:   20  21  22  23  24
GPGPU-Sim uArch:   25
d060c9b243ea8c3fe9ed27f5d4284c8c  /home/qiumin/gbench/benchmarks/ccl/ccl_le_gpu
GPGPU-Sim uArch: performance model initialization complete.
GPGPU-Sim PTX: __cudaRegisterFatBinary, fat_cubin_handle = 1, filename=ccl_le.cu
self exe links to: /home/qiumin/gbench/benchmarks/ccl/ccl_le_gpu
Running md5sum using "md5sum /home/qiumin/gbench/benchmarks/ccl/ccl_le_gpu "
Running cuobjdump using "$CUDA_INSTALL_PATH/bin/cuobjdump -ptx -elf -sass /home/qiumin/gbench/benchmarks/ccl/ccl_le_gpu > _cuobjdump_complete_output_LURzGU"
Parsing file _cuobjdump_complete_output_LURzGU
######### cuobjdump parser ########
## Adding new section ELF
Adding arch: sm_20
Adding identifier: ccl_le.cu
## Adding new section PTX
Adding ptx filename: _cuobjdump_1.ptx
Adding arch: sm_20
Adding identifier: ccl_le.cu
Done parsing!!!
GPGPU-Sim PTX: __cudaRegisterFunction _Z8labelingPiS_S_i : hostFun 0x0x401db0, fat_cubin_handle = 1
GPGPU-Sim PTX: allocating stack frame region for .param "__cudaretf__Z4diffii" from 0x0 to 0x4
GPGPU-Sim PTX: allocating stack frame region for .param "__cudaparmf1__Z4diffii" from 0x4 to 0x8
GPGPU-Sim PTX: allocating stack frame region for .param "__cudaparmf2__Z4diffii" from 0x8 to 0xc
GPGPU-Sim PTX: instruction assembly for function '_Z4diffii'...   done.
GPGPU-Sim PTX: finding reconvergence points for '_Z4diffii'...
GPGPU-Sim PTX: Finding dominators for '_Z4diffii'...
GPGPU-Sim PTX: Finding immediate dominators for '_Z4diffii'...
GPGPU-Sim PTX: Finding postdominators for '_Z4diffii'...
GPGPU-Sim PTX: Finding immediate postdominators for '_Z4diffii'...
GPGPU-Sim PTX: pre-decoding instructions for '_Z4diffii'...
GPGPU-Sim PTX: reconvergence points for _Z4diffii...
GPGPU-Sim PTX: ... end of reconvergence points for _Z4diffii
GPGPU-Sim PTX: ... done pre-decoding instructions for '_Z4diffii'.
GPGPU-Sim PTX: instruction assembly for function '_Z8init_CCLPiS_i'...   done.
GPGPU-Sim PTX: finding reconvergence points for '_Z8init_CCLPiS_i'...
GPGPU-Sim PTX: Finding dominators for '_Z8init_CCLPiS_i'...
GPGPU-Sim PTX: Finding immediate dominators for '_Z8init_CCLPiS_i'...
GPGPU-Sim PTX: Finding postdominators for '_Z8init_CCLPiS_i'...
GPGPU-Sim PTX: Finding immediate postdominators for '_Z8init_CCLPiS_i'...
GPGPU-Sim PTX: pre-decoding instructions for '_Z8init_CCLPiS_i'...
GPGPU-Sim PTX: reconvergence points for _Z8init_CCLPiS_i...
GPGPU-Sim PTX:  1 (potential) branch divergence @  PC=0x120 (_1.ptx:107) @%p1 bra $Lt_1_1026;
GPGPU-Sim PTX:    immediate post dominator      @  PC=0x170 (_1.ptx:121) exit;
GPGPU-Sim PTX:  2 (potential) branch divergence @  PC=0x128 (_1.ptx:108) bra.uni $LBB4__Z8init_CCLPiS_i;
GPGPU-Sim PTX:    immediate post dominator      @  PC=0x170 (_1.ptx:121) exit;
GPGPU-Sim PTX: ... end of reconvergence points for _Z8init_CCLPiS_i
GPGPU-Sim PTX: ... done pre-decoding instructions for '_Z8init_CCLPiS_i'.
GPGPU-Sim PTX: instruction assembly for function '_Z8scanningPiS_S_Pbiii'...   done.
GPGPU-Sim PTX: finding reconvergence points for '_Z8scanningPiS_S_Pbiii'...
GPGPU-Sim PTX: Finding dominators for '_Z8scanningPiS_S_Pbiii'...
GPGPU-Sim PTX: Finding immediate dominators for '_Z8scanningPiS_S_Pbiii'...
GPGPU-Sim PTX: Finding postdominators for '_Z8scanningPiS_S_Pbiii'...
GPGPU-Sim PTX: Finding immediate postdominators for '_Z8scanningPiS_S_Pbiii'...
GPGPU-Sim PTX: pre-decoding instructions for '_Z8scanningPiS_S_Pbiii'...
GPGPU-Sim PTX: reconvergence points for _Z8scanningPiS_S_Pbiii...
GPGPU-Sim PTX:  1 (potential) branch divergence @  PC=0x1d8 (_1.ptx:151) @%p1 bra $Lt_2_4866;
GPGPU-Sim PTX:    immediate post dominator      @  PC=0x658 (_1.ptx:314) exit;
GPGPU-Sim PTX:  2 (potential) branch divergence @  PC=0x1e0 (_1.ptx:152) bra.uni $LBB20__Z8scanningPiS_S_Pbiii;
GPGPU-Sim PTX:    immediate post dominator      @  PC=0x658 (_1.ptx:314) exit;
GPGPU-Sim PTX:  3 (potential) branch divergence @  PC=0x238 (_1.ptx:167) @%p2 bra $Lt_2_5890;
GPGPU-Sim PTX:    immediate post dominator      @  PC=0x338 (_1.ptx:202) add.s32 %r38, %r14, %r10;
GPGPU-Sim PTX:  4 (potential) branch divergence @  PC=0x308 (_1.ptx:193) @%p3 bra $Lt_2_1026;
GPGPU-Sim PTX:    immediate post dominator      @  PC=0x338 (_1.ptx:202) add.s32 %r38, %r14, %r10;
GPGPU-Sim PTX:  5 (potential) branch divergence @  PC=0x328 (_1.ptx:197) bra.uni $Lt_2_1026;
GPGPU-Sim PTX:    immediate post dominator      @  PC=0x338 (_1.ptx:202) add.s32 %r38, %r14, %r10;
GPGPU-Sim PTX:  6 (potential) branch divergence @  PC=0x348 (_1.ptx:204) @%p4 bra $Lt_2_6402;
GPGPU-Sim PTX:    immediate post dominator      @  PC=0x430 (_1.ptx:236) rem.s32 %r60, %r10, %r14;
GPGPU-Sim PTX:  7 (potential) branch divergence @  PC=0x410 (_1.ptx:229) @%p5 bra $Lt_2_6402;
GPGPU-Sim PTX:    immediate post dominator      @  PC=0x430 (_1.ptx:236) rem.s32 %r60, %r10, %r14;
GPGPU-Sim PTX:  8 (potential) branch divergence @  PC=0x448 (_1.ptx:239) @%p6 bra $Lt_2_6914;
GPGPU-Sim PTX:    immediate post dominator      @  PC=0x528 (_1.ptx:270) add.s32 %r83, %r60, 1;
GPGPU-Sim PTX:  9 (potential) branch divergence @  PC=0x500 (_1.ptx:262) @%p7 bra $Lt_2_2562;
GPGPU-Sim PTX:    immediate post dominator      @  PC=0x528 (_1.ptx:270) add.s32 %r83, %r60, 1;
GPGPU-Sim PTX: 10 (potential) branch divergence @  PC=0x518 (_1.ptx:265) bra.uni $Lt_2_2562;
GPGPU-Sim PTX:    immediate post dominator      @  PC=0x528 (_1.ptx:270) add.s32 %r83, %r60, 1;
GPGPU-Sim PTX: 11 (potential) branch divergence @  PC=0x538 (_1.ptx:272) @%p8 bra $Lt_2_7426;
GPGPU-Sim PTX:    immediate post dominator      @  PC=0x600 (_1.ptx:299) ld.global.s32 %r105, [%rd14+0];
GPGPU-Sim PTX: 12 (potential) branch divergence @  PC=0x5e8 (_1.ptx:294) @%p9 bra $Lt_2_7426;
GPGPU-Sim PTX:    immediate post dominator      @  PC=0x600 (_1.ptx:299) ld.global.s32 %r105, [%rd14+0];
GPGPU-Sim PTX: 13 (potential) branch divergence @  PC=0x610 (_1.ptx:301) @%p10 bra $LBB20__Z8scanningPiS_S_Pbiii;
GPGPU-Sim PTX:    immediate post dominator      @  PC=0x658 (_1.ptx:314) exit;
GPGPU-Sim PTX: ... end of reconvergence points for _Z8scanningPiS_S_Pbiii
GPGPU-Sim PTX: ... done pre-decoding instructions for '_Z8scanningPiS_S_Pbiii'.
GPGPU-Sim PTX: instruction assembly for function '_Z9scanning8PiS_S_Pbiii'...   done.
GPGPU-Sim PTX: finding reconvergence points for '_Z9scanning8PiS_S_Pbiii'...
GPGPU-Sim PTX: Finding dominators for '_Z9scanning8PiS_S_Pbiii'...
GPGPU-Sim PTX: Finding immediate dominators for '_Z9scanning8PiS_S_Pbiii'...
GPGPU-Sim PTX: Finding postdominators for '_Z9scanning8PiS_S_Pbiii'...
GPGPU-Sim PTX: Finding immediate postdominators for '_Z9scanning8PiS_S_Pbiii'...
GPGPU-Sim PTX: pre-decoding instructions for '_Z9scanning8PiS_S_Pbiii'...
GPGPU-Sim PTX: reconvergence points for _Z9scanning8PiS_S_Pbiii...
GPGPU-Sim PTX:  1 (potential) branch divergence @  PC=0x6c0 (_1.ptx:344) @%p1 bra $Lt_3_9474;
GPGPU-Sim PTX:    immediate post dominator      @  PC=0xe70 (_1.ptx:620) exit;
GPGPU-Sim PTX:  2 (potential) branch divergence @  PC=0x6c8 (_1.ptx:345) bra.uni $LBB33__Z9scanning8PiS_S_Pbiii;
GPGPU-Sim PTX:    immediate post dominator      @  PC=0xe70 (_1.ptx:620) exit;
GPGPU-Sim PTX:  3 (potential) branch divergence @  PC=0x720 (_1.ptx:360) @%p2 bra $Lt_3_12546;
GPGPU-Sim PTX:    immediate post dominator      @  PC=0x820 (_1.ptx:395) add.s32 %r38, %r14, %r10;
GPGPU-Sim PTX:  4 (potential) branch divergence @  PC=0x7f0 (_1.ptx:386) @%p3 bra $Lt_3_1026;
GPGPU-Sim PTX:    immediate post dominator      @  PC=0x820 (_1.ptx:395) add.s32 %r38, %r14, %r10;
GPGPU-Sim PTX:  5 (potential) branch divergence @  PC=0x810 (_1.ptx:390) bra.uni $Lt_3_1026;
GPGPU-Sim PTX:    immediate post dominator      @  PC=0x820 (_1.ptx:395) add.s32 %r38, %r14, %r10;
GPGPU-Sim PTX:  6 (potential) branch divergence @  PC=0x830 (_1.ptx:397) @%p4 bra $Lt_3_13058;
GPGPU-Sim PTX:    immediate post dominator      @  PC=0x918 (_1.ptx:428) rem.s32 %r60, %r10, %r14;
GPGPU-Sim PTX:  7 (potential) branch divergence @  PC=0x8f8 (_1.ptx:422) @%p5 bra $Lt_3_13058;
GPGPU-Sim PTX:    immediate post dominator      @  PC=0x918 (_1.ptx:428) rem.s32 %r60, %r10, %r14;
GPGPU-Sim PTX:  8 (potential) branch divergence @  PC=0x930 (_1.ptx:431) @%p6 bra $Lt_3_10242;
GPGPU-Sim PTX:    immediate post dominator      @  PC=0xba8 (_1.ptx:518) add.s32 %r116, %r60, 1;
GPGPU-Sim PTX:  9 (potential) branch divergence @  PC=0x9e8 (_1.ptx:455) @%p7 bra $Lt_3_10498;
GPGPU-Sim PTX:    immediate post dominator      @  PC=0xa00 (_1.ptx:460) sub.s32 %r83, %r15, 1;
GPGPU-Sim PTX: 10 (potential) branch divergence @  PC=0xa18 (_1.ptx:463) @%p8 bra $Lt_3_13570;
GPGPU-Sim PTX:    immediate post dominator      @  PC=0xad0 (_1.ptx:489) sub.s32 %r100, %r38, 1;
GPGPU-Sim PTX: 11 (potential) branch divergence @  PC=0xab0 (_1.ptx:482) @%p9 bra $Lt_3_13570;
GPGPU-Sim PTX:    immediate post dominator      @  PC=0xad0 (_1.ptx:489) sub.s32 %r100, %r38, 1;
GPGPU-Sim PTX: 12 (potential) branch divergence @  PC=0xae0 (_1.ptx:491) @%p10 bra $Lt_3_9986;
GPGPU-Sim PTX:    immediate post dominator      @  PC=0xba8 (_1.ptx:518) add.s32 %r116, %r60, 1;
GPGPU-Sim PTX: 13 (potential) branch divergence @  PC=0xb78 (_1.ptx:510) @%p11 bra $Lt_3_9986;
GPGPU-Sim PTX:    immediate post dominator      @  PC=0xba8 (_1.ptx:518) add.s32 %r116, %r60, 1;
GPGPU-Sim PTX: 14 (potential) branch divergence @  PC=0xb98 (_1.ptx:514) bra.uni $Lt_3_9986;
GPGPU-Sim PTX:    immediate post dominator      @  PC=0xba8 (_1.ptx:518) add.s32 %r116, %r60, 1;
GPGPU-Sim PTX: 15 (potential) branch divergence @  PC=0xbb8 (_1.ptx:520) @%p12 bra $Lt_3_15106;
GPGPU-Sim PTX:    immediate post dominator      @  PC=0xe18 (_1.ptx:605) ld.global.s32 %r167, [%rd14+0];
GPGPU-Sim PTX: 16 (potential) branch divergence @  PC=0xc68 (_1.ptx:543) @%p13 bra $Lt_3_11522;
GPGPU-Sim PTX:    immediate post dominator      @  PC=0xc80 (_1.ptx:548) add.s32 %r134, %r15, 1;
GPGPU-Sim PTX: 17 (potential) branch divergence @  PC=0xc98 (_1.ptx:551) @%p14 bra $Lt_3_14594;
GPGPU-Sim PTX:    immediate post dominator      @  PC=0xd50 (_1.ptx:577) add.s32 %r151, %r38, 1;
GPGPU-Sim PTX: 18 (potential) branch divergence @  PC=0xd30 (_1.ptx:570) @%p15 bra $Lt_3_14594;
GPGPU-Sim PTX:    immediate post dominator      @  PC=0xd50 (_1.ptx:577) add.s32 %r151, %r38, 1;
GPGPU-Sim PTX: 19 (potential) branch divergence @  PC=0xd60 (_1.ptx:579) @%p16 bra $Lt_3_15106;
GPGPU-Sim PTX:    immediate post dominator      @  PC=0xe18 (_1.ptx:605) ld.global.s32 %r167, [%rd14+0];
GPGPU-Sim PTX: 20 (potential) branch divergence @  PC=0xdf8 (_1.ptx:598) @%p17 bra $Lt_3_15106;
GPGPU-Sim PTX:    immediate post dominator      @  PC=0xe18 (_1.ptx:605) ld.global.s32 %r167, [%rd14+0];
GPGPU-Sim PTX: 21 (potential) branch divergence @  PC=0xe28 (_1.ptx:607) @%p18 bra $LBB33__Z9scanning8PiS_S_Pbiii;
GPGPU-Sim PTX:    immediate post dominator      @  PC=0xe70 (_1.ptx:620) exit;
GPGPU-Sim PTX: ... end of reconvergence points for _Z9scanning8PiS_S_Pbiii
GPGPU-Sim PTX: ... done pre-decoding instructions for '_Z9scanning8PiS_S_Pbiii'.
GPGPU-Sim PTX: instruction assembly for function '_Z8analysisPiS_S_i'...   done.
GPGPU-Sim PTX: finding reconvergence points for '_Z8analysisPiS_S_i'...
GPGPU-Sim PTX: Finding dominators for '_Z8analysisPiS_S_i'...
GPGPU-Sim PTX: Finding immediate dominators for '_Z8analysisPiS_S_i'...
GPGPU-Sim PTX: Finding postdominators for '_Z8analysisPiS_S_i'...
GPGPU-Sim PTX: Finding immediate postdominators for '_Z8analysisPiS_S_i'...
GPGPU-Sim PTX: pre-decoding instructions for '_Z8analysisPiS_S_i'...
GPGPU-Sim PTX: reconvergence points for _Z8analysisPiS_S_i...
GPGPU-Sim PTX:  1 (potential) branch divergence @  PC=0xed8 (_1.ptx:647) @%p1 bra $Lt_4_2562;
GPGPU-Sim PTX:    immediate post dominator      @  PC=0xf70 (_1.ptx:673) exit;
GPGPU-Sim PTX:  2 (potential) branch divergence @  PC=0xee0 (_1.ptx:648) bra.uni $LBB8__Z8analysisPiS_S_i;
GPGPU-Sim PTX:    immediate post dominator      @  PC=0xf70 (_1.ptx:673) exit;
GPGPU-Sim PTX:  3 (potential) branch divergence @  PC=0xf18 (_1.ptx:657) @%p2 bra $LBB8__Z8analysisPiS_S_i;
GPGPU-Sim PTX:    immediate post dominator      @  PC=0xf70 (_1.ptx:673) exit;
GPGPU-Sim PTX:  4 (potential) branch divergence @  PC=0xf58 (_1.ptx:667) @%p3 bra $Lt_4_3842;
GPGPU-Sim PTX:    immediate post dominator      @  PC=0xf60 (_1.ptx:669) add.u64 %rd9, %rd2, %rd5;
GPGPU-Sim PTX: ... end of reconvergence points for _Z8analysisPiS_S_i
GPGPU-Sim PTX: ... done pre-decoding instructions for '_Z8analysisPiS_S_i'.
GPGPU-Sim PTX: instruction assembly for function '_Z8labelingPiS_S_i'...   done.
GPGPU-Sim PTX: finding reconvergence points for '_Z8labelingPiS_S_i'...
GPGPU-Sim PTX: Finding dominators for '_Z8labelingPiS_S_i'...
GPGPU-Sim PTX: Finding immediate dominators for '_Z8labelingPiS_S_i'...
GPGPU-Sim PTX: Finding postdominators for '_Z8labelingPiS_S_i'...
GPGPU-Sim PTX: Finding immediate postdominators for '_Z8labelingPiS_S_i'...
GPGPU-Sim PTX: pre-decoding instructions for '_Z8labelingPiS_S_i'...
GPGPU-Sim PTX: reconvergence points for _Z8labelingPiS_S_i...
GPGPU-Sim PTX:  1 (potential) branch divergence @  PC=0xfd8 (_1.ptx:700) @%p1 bra $Lt_5_1026;
GPGPU-Sim PTX:    immediate post dominator      @  PC=0x1060 (_1.ptx:721) exit;
GPGPU-Sim PTX:  2 (potential) branch divergence @  PC=0xfe0 (_1.ptx:701) bra.uni $LBB4__Z8labelingPiS_S_i;
GPGPU-Sim PTX:    immediate post dominator      @  PC=0x1060 (_1.ptx:721) exit;
GPGPU-Sim PTX: ... end of reconvergence points for _Z8labelingPiS_S_i
GPGPU-Sim PTX: ... done pre-decoding instructions for '_Z8labelingPiS_S_i'.
GPGPU-Sim PTX: finished parsing EMBEDDED .ptx file _1.ptx
Adding _cuobjdump_1.ptx with cubin handle 1
GPGPU-Sim PTX: extracting embedded .ptx to temporary file "_ptx_yYVWmg"
Running: cat _ptx_yYVWmg | sed 's/.version 1.5/.version 1.4/' | sed 's/, texmode_independent//' | sed 's/\(\.extern \.const\[1\] .b8 \w\+\)\[\]/\1\[1\]/' | sed 's/const\[.\]/const\[0\]/g' > _ptx2_F62k3B
GPGPU-Sim PTX: generating ptxinfo using "$CUDA_INSTALL_PATH/bin/ptxas --gpu-name=sm_20 -v _ptx2_F62k3B --output-file  /dev/null 2> _ptx_yYVWmginfo"
GPGPU-Sim PTX: Kernel '_Z8labelingPiS_S_i' : regs=8, lmem=0, smem=0, cmem=60
GPGPU-Sim PTX: Kernel '_Z8analysisPiS_S_i' : regs=8, lmem=0, smem=0, cmem=60
GPGPU-Sim PTX: Kernel '_Z9scanning8PiS_S_Pbiii' : regs=19, lmem=0, smem=0, cmem=76
GPGPU-Sim PTX: Kernel '_Z8scanningPiS_S_Pbiii' : regs=16, lmem=0, smem=0, cmem=76
GPGPU-Sim PTX: Kernel '_Z8init_CCLPiS_i' : regs=8, lmem=0, smem=0, cmem=52
GPGPU-Sim PTX: removing ptxinfo using "rm -f _ptx_yYVWmg _ptx2_F62k3B _ptx_yYVWmginfo"
GPGPU-Sim PTX: loading globals with explicit initializers... 
GPGPU-Sim PTX: finished loading globals (0 bytes total).
GPGPU-Sim PTX: loading constants with explicit initializers...  done.
GPGPU-Sim PTX: __cudaRegisterFunction _Z8analysisPiS_S_i : hostFun 0x0x401e50, fat_cubin_handle = 1
GPGPU-Sim PTX: __cudaRegisterFunction _Z9scanning8PiS_S_Pbiii : hostFun 0x0x401f50, fat_cubin_handle = 1
GPGPU-Sim PTX: __cudaRegisterFunction _Z8scanningPiS_S_Pbiii : hostFun 0x0x402050, fat_cubin_handle = 1
GPGPU-Sim PTX: __cudaRegisterFunction _Z8init_CCLPiS_i : hostFun 0x0x402490, fat_cubin_handle = 1

GPGPU-Sim PTX: cudaLaunch for 0x0x402490 (mode=performance simulation) on stream 0
GPGPU-Sim PTX: pushing kernel '_Z8init_CCLPiS_i' to stream 0, gridDim= (25,25,1) blockDim = (256,1,1) 
kernel '_Z8init_CCLPiS_i' transfer to GPU hardware scheduler
GPGPU-Sim uArch: Shader 1 bind to kernel 1 '_Z8init_CCLPiS_i'
GPGPU-Sim uArch: CTA/core = 6, limited by: threads
GPGPU-Sim uArch: core:  1, cta: 0 initialized @(1,0)
GPGPU-Sim uArch: Shader 2 bind to kernel 1 '_Z8init_CCLPiS_i'
GPGPU-Sim uArch: core:  2, cta: 0 initialized @(1,0)
GPGPU-Sim uArch: Shader 3 bind to kernel 1 '_Z8init_CCLPiS_i'
GPGPU-Sim uArch: core:  3, cta: 0 initialized @(1,0)
GPGPU-Sim uArch: Shader 4 bind to kernel 1 '_Z8init_CCLPiS_i'
GPGPU-Sim uArch: core:  4, cta: 0 initialized @(1,0)
GPGPU-Sim uArch: Shader 5 bind to kernel 1 '_Z8init_CCLPiS_i'
GPGPU-Sim uArch: core:  5, cta: 0 initialized @(1,0)
GPGPU-Sim uArch: Shader 6 bind to kernel 1 '_Z8init_CCLPiS_i'
GPGPU-Sim uArch: core:  6, cta: 0 initialized @(1,0)
GPGPU-Sim uArch: Shader 7 bind to kernel 1 '_Z8init_CCLPiS_i'
GPGPU-Sim uArch: core:  7, cta: 0 initialized @(1,0)
GPGPU-Sim uArch: Shader 8 bind to kernel 1 '_Z8init_CCLPiS_i'
GPGPU-Sim uArch: core:  8, cta: 0 initialized @(1,0)
GPGPU-Sim uArch: Shader 9 bind to kernel 1 '_Z8init_CCLPiS_i'
GPGPU-Sim uArch: core:  9, cta: 0 initialized @(1,0)
GPGPU-Sim uArch: Shader 10 bind to kernel 1 '_Z8init_CCLPiS_i'
GPGPU-Sim uArch: core: 10, cta: 0 initialized @(1,0)
GPGPU-Sim uArch: Shader 11 bind to kernel 1 '_Z8init_CCLPiS_i'
GPGPU-Sim uArch: core: 11, cta: 0 initialized @(1,0)
GPGPU-Sim uArch: Shader 12 bind to kernel 1 '_Z8init_CCLPiS_i'
GPGPU-Sim uArch: core: 12, cta: 0 initialized @(1,0)
GPGPU-Sim uArch: Shader 13 bind to kernel 1 '_Z8init_CCLPiS_i'
GPGPU-Sim uArch: core: 13, cta: 0 initialized @(1,0)
GPGPU-Sim uArch: Shader 0 bind to kernel 1 '_Z8init_CCLPiS_i'
GPGPU-Sim uArch: core:  0, cta: 0 initialized @(1,0)
GPGPU-Sim uArch: core:  1, cta: 1 initialized @(2,0)
GPGPU-Sim uArch: core:  2, cta: 1 initialized @(2,0)
GPGPU-Sim uArch: core:  3, cta: 1 initialized @(2,0)
GPGPU-Sim uArch: core:  4, cta: 1 initialized @(2,0)
GPGPU-Sim uArch: core:  5, cta: 1 initialized @(2,0)
GPGPU-Sim uArch: core:  6, cta: 1 initialized @(2,0)
GPGPU-Sim uArch: core:  7, cta: 1 initialized @(2,0)
GPGPU-Sim uArch: core:  8, cta: 1 initialized @(2,0)
GPGPU-Sim uArch: core:  9, cta: 1 initialized @(2,0)
GPGPU-Sim uArch: core: 10, cta: 1 initialized @(2,0)
GPGPU-Sim uArch: core: 11, cta: 1 initialized @(2,0)
GPGPU-Sim uArch: core: 12, cta: 1 initialized @(2,0)
GPGPU-Sim uArch: core: 13, cta: 1 initialized @(2,0)
GPGPU-Sim uArch: core:  0, cta: 1 initialized @(2,0)
GPGPU-Sim uArch: core:  1, cta: 2 initialized @(3,0)
GPGPU-Sim uArch: core:  2, cta: 2 initialized @(3,0)
GPGPU-Sim uArch: core:  3, cta: 2 initialized @(3,0)
GPGPU-Sim uArch: core:  4, cta: 2 initialized @(3,0)
GPGPU-Sim uArch: core:  5, cta: 2 initialized @(3,0)
GPGPU-Sim uArch: core:  6, cta: 2 initialized @(3,0)
GPGPU-Sim uArch: core:  7, cta: 2 initialized @(3,0)
GPGPU-Sim uArch: core:  8, cta: 2 initialized @(3,0)
GPGPU-Sim uArch: core:  9, cta: 2 initialized @(3,0)
GPGPU-Sim uArch: core: 10, cta: 2 initialized @(3,0)
GPGPU-Sim uArch: core: 11, cta: 2 initialized @(3,0)
GPGPU-Sim uArch: core: 12, cta: 2 initialized @(3,0)
GPGPU-Sim uArch: core: 13, cta: 2 initialized @(3,0)
GPGPU-Sim uArch: core:  0, cta: 2 initialized @(3,0)
GPGPU-Sim uArch: core:  1, cta: 3 initialized @(4,0)
GPGPU-Sim uArch: core:  2, cta: 3 initialized @(4,0)
GPGPU-Sim uArch: core:  3, cta: 3 initialized @(4,0)
GPGPU-Sim uArch: core:  4, cta: 3 initialized @(4,0)
GPGPU-Sim uArch: core:  5, cta: 3 initialized @(4,0)
GPGPU-Sim uArch: core:  6, cta: 3 initialized @(4,0)
GPGPU-Sim uArch: core:  7, cta: 3 initialized @(4,0)
GPGPU-Sim uArch: core:  8, cta: 3 initialized @(4,0)
GPGPU-Sim uArch: core:  9, cta: 3 initialized @(4,0)
GPGPU-Sim uArch: core: 10, cta: 3 initialized @(4,0)
GPGPU-Sim uArch: core: 11, cta: 3 initialized @(4,0)
GPGPU-Sim uArch: core: 12, cta: 3 initialized @(4,0)
GPGPU-Sim uArch: core: 13, cta: 3 initialized @(4,0)
GPGPU-Sim uArch: core:  0, cta: 3 initialized @(4,0)
GPGPU-Sim uArch: core:  1, cta: 4 initialized @(5,0)
GPGPU-Sim uArch: core:  2, cta: 4 initialized @(5,0)
GPGPU-Sim uArch: core:  3, cta: 4 initialized @(5,0)
GPGPU-Sim uArch: core:  4, cta: 4 initialized @(5,0)
GPGPU-Sim uArch: core:  5, cta: 4 initialized @(5,0)
GPGPU-Sim uArch: core:  6, cta: 4 initialized @(5,0)
GPGPU-Sim uArch: core:  7, cta: 4 initialized @(5,0)
GPGPU-Sim uArch: core:  8, cta: 4 initialized @(5,0)
GPGPU-Sim uArch: core:  9, cta: 4 initialized @(5,0)
GPGPU-Sim uArch: core: 10, cta: 4 initialized @(5,0)
GPGPU-Sim uArch: core: 11, cta: 4 initialized @(5,0)
GPGPU-Sim uArch: core: 12, cta: 4 initialized @(5,0)
GPGPU-Sim uArch: core: 13, cta: 4 initialized @(5,0)
GPGPU-Sim uArch: core:  0, cta: 4 initialized @(5,0)
GPGPU-Sim uArch: core:  1, cta: 5 initialized @(6,0)
GPGPU-Sim uArch: core:  2, cta: 5 initialized @(6,0)
GPGPU-Sim uArch: core:  3, cta: 5 initialized @(6,0)
GPGPU-Sim uArch: core:  4, cta: 5 initialized @(6,0)
GPGPU-Sim uArch: core:  5, cta: 5 initialized @(6,0)
GPGPU-Sim uArch: core:  6, cta: 5 initialized @(6,0)
GPGPU-Sim uArch: core:  7, cta: 5 initialized @(6,0)
GPGPU-Sim uArch: core:  8, cta: 5 initialized @(6,0)
GPGPU-Sim uArch: core:  9, cta: 5 initialized @(6,0)
GPGPU-Sim uArch: core: 10, cta: 5 initialized @(6,0)
GPGPU-Sim uArch: core: 11, cta: 5 initialized @(6,0)
GPGPU-Sim uArch: core: 12, cta: 5 initialized @(6,0)
GPGPU-Sim uArch: core: 13, cta: 5 initialized @(6,0)
GPGPU-Sim uArch: core:  0, cta: 5 initialized @(6,0)
GPGPU-Sim PTX: 100000 instructions simulated : ctaid=(18,0,0) tid=(63,0,0)
GPGPU-Sim uArch: cycles simulated: 500  inst.: 103840 (ipc=207.7) sim_rate=103840 (inst/sec) elapsed = 0:0:00:01 / Sun Mar 23 01:56:27 2014
GPGPU-Sim PTX: 200000 instructions simulated : ctaid=(11,1,0) tid=(223,0,0)
GPGPU-Sim PTX: 300000 instructions simulated : ctaid=(23,1,0) tid=(63,0,0)
GPGPU-Sim PTX: 400000 instructions simulated : ctaid=(24,1,0) tid=(95,0,0)
GPGPU-Sim uArch: cycles simulated: 1500  inst.: 410112 (ipc=273.4) sim_rate=205056 (inst/sec) elapsed = 0:0:00:02 / Sun Mar 23 01:56:28 2014
GPGPU-Sim uArch: Shader 3 finished CTA #0 (1702,0), 5 CTAs running
GPGPU-Sim uArch: core:  3, cta: 0 initialized @(1703,0)
GPGPU-Sim uArch: Shader 0 finished CTA #0 (1844,0), 5 CTAs running
GPGPU-Sim uArch: core:  0, cta: 0 initialized @(1845,0)
GPGPU-Sim uArch: Shader 1 finished CTA #0 (1883,0), 5 CTAs running
GPGPU-Sim uArch: core:  1, cta: 0 initialized @(1884,0)
GPGPU-Sim uArch: Shader 12 finished CTA #0 (1891,0), 5 CTAs running
GPGPU-Sim uArch: core: 12, cta: 0 initialized @(1892,0)
GPGPU-Sim uArch: Shader 9 finished CTA #0 (1977,0), 5 CTAs running
GPGPU-Sim uArch: core:  9, cta: 0 initialized @(1978,0)
GPGPU-Sim uArch: Shader 4 finished CTA #0 (1982,0), 5 CTAs running
GPGPU-Sim uArch: core:  4, cta: 0 initialized @(1983,0)
GPGPU-Sim uArch: Shader 8 finished CTA #0 (1983,0), 5 CTAs running
GPGPU-Sim uArch: core:  8, cta: 0 initialized @(1984,0)
GPGPU-Sim uArch: Shader 2 finished CTA #0 (2031,0), 5 CTAs running
GPGPU-Sim uArch: core:  2, cta: 0 initialized @(2032,0)
GPGPU-Sim uArch: Shader 6 finished CTA #0 (2077,0), 5 CTAs running
GPGPU-Sim uArch: core:  6, cta: 0 initialized @(2078,0)
GPGPU-Sim uArch: Shader 7 finished CTA #0 (2089,0), 5 CTAs running
GPGPU-Sim uArch: core:  7, cta: 0 initialized @(2090,0)
GPGPU-Sim uArch: Shader 5 finished CTA #0 (2099,0), 5 CTAs running
GPGPU-Sim uArch: core:  5, cta: 0 initialized @(2100,0)
GPGPU-Sim uArch: Shader 4 finished CTA #1 (2148,0), 5 CTAs running
GPGPU-Sim uArch: core:  4, cta: 1 initialized @(2149,0)
GPGPU-Sim uArch: Shader 10 finished CTA #0 (2158,0), 5 CTAs running
GPGPU-Sim uArch: core: 10, cta: 0 initialized @(2159,0)
GPGPU-Sim uArch: Shader 1 finished CTA #1 (2191,0), 5 CTAs running
GPGPU-Sim uArch: core:  1, cta: 1 initialized @(2192,0)
GPGPU-Sim uArch: Shader 13 finished CTA #0 (2195,0), 5 CTAs running
GPGPU-Sim uArch: core: 13, cta: 0 initialized @(2196,0)
GPGPU-Sim uArch: Shader 7 finished CTA #1 (2201,0), 5 CTAs running
GPGPU-Sim uArch: core:  7, cta: 1 initialized @(2202,0)
GPGPU-Sim uArch: Shader 11 finished CTA #0 (2230,0), 5 CTAs running
GPGPU-Sim uArch: core: 11, cta: 0 initialized @(2231,0)
GPGPU-Sim uArch: Shader 12 finished CTA #1 (2234,0), 5 CTAs running
GPGPU-Sim uArch: core: 12, cta: 1 initialized @(2235,0)
GPGPU-Sim uArch: Shader 5 finished CTA #1 (2239,0), 5 CTAs running
GPGPU-Sim uArch: core:  5, cta: 1 initialized @(2240,0)
GPGPU-Sim uArch: Shader 2 finished CTA #1 (2242,0), 5 CTAs running
GPGPU-Sim uArch: core:  2, cta: 1 initialized @(2243,0)
GPGPU-Sim PTX: 500000 instructions simulated : ctaid=(2,4,0) tid=(95,0,0)
GPGPU-Sim uArch: Shader 3 finished CTA #1 (2344,0), 5 CTAs running
GPGPU-Sim uArch: core:  3, cta: 1 initialized @(2345,0)
GPGPU-Sim uArch: Shader 0 finished CTA #1 (2369,0), 5 CTAs running
GPGPU-Sim uArch: core:  0, cta: 1 initialized @(2370,0)
GPGPU-Sim uArch: Shader 13 finished CTA #1 (2378,0), 5 CTAs running
GPGPU-Sim uArch: core: 13, cta: 1 initialized @(2379,0)
GPGPU-Sim uArch: cycles simulated: 2500  inst.: 546080 (ipc=218.4) sim_rate=182026 (inst/sec) elapsed = 0:0:00:03 / Sun Mar 23 01:56:29 2014
GPGPU-Sim uArch: Shader 9 finished CTA #1 (2536,0), 5 CTAs running
GPGPU-Sim uArch: core:  9, cta: 1 initialized @(2537,0)
GPGPU-Sim uArch: Shader 10 finished CTA #1 (2555,0), 5 CTAs running
GPGPU-Sim uArch: core: 10, cta: 1 initialized @(2556,0)
GPGPU-Sim uArch: Shader 8 finished CTA #1 (2570,0), 5 CTAs running
GPGPU-Sim uArch: core:  8, cta: 1 initialized @(2571,0)
GPGPU-Sim uArch: Shader 6 finished CTA #1 (2642,0), 5 CTAs running
GPGPU-Sim uArch: core:  6, cta: 1 initialized @(2643,0)
GPGPU-Sim uArch: Shader 11 finished CTA #1 (2674,0), 5 CTAs running
GPGPU-Sim uArch: core: 11, cta: 1 initialized @(2675,0)
GPGPU-Sim uArch: Shader 2 finished CTA #2 (2904,0), 5 CTAs running
GPGPU-Sim uArch: core:  2, cta: 2 initialized @(2905,0)
GPGPU-Sim PTX: 600000 instructions simulated : ctaid=(3,4,0) tid=(127,0,0)
GPGPU-Sim uArch: Shader 12 finished CTA #2 (2992,0), 5 CTAs running
GPGPU-Sim uArch: core: 12, cta: 2 initialized @(2993,0)
GPGPU-Sim uArch: Shader 5 finished CTA #2 (2997,0), 5 CTAs running
GPGPU-Sim uArch: core:  5, cta: 2 initialized @(2998,0)
GPGPU-Sim uArch: Shader 7 finished CTA #2 (3013,0), 5 CTAs running
GPGPU-Sim uArch: core:  7, cta: 2 initialized @(3014,0)
GPGPU-Sim uArch: Shader 8 finished CTA #2 (3056,0), 5 CTAs running
GPGPU-Sim uArch: core:  8, cta: 2 initialized @(3057,0)
GPGPU-Sim uArch: Shader 4 finished CTA #2 (3069,0), 5 CTAs running
GPGPU-Sim uArch: core:  4, cta: 2 initialized @(3070,0)
GPGPU-Sim uArch: Shader 12 finished CTA #3 (3164,0), 5 CTAs running
GPGPU-Sim uArch: core: 12, cta: 3 initialized @(3165,0)
GPGPU-Sim uArch: Shader 9 finished CTA #2 (3168,0), 5 CTAs running
GPGPU-Sim uArch: core:  9, cta: 2 initialized @(3169,0)
GPGPU-Sim uArch: Shader 1 finished CTA #2 (3175,0), 5 CTAs running
GPGPU-Sim uArch: core:  1, cta: 2 initialized @(3176,0)
GPGPU-Sim uArch: Shader 3 finished CTA #2 (3180,0), 5 CTAs running
GPGPU-Sim uArch: core:  3, cta: 2 initialized @(3181,0)
GPGPU-Sim uArch: Shader 11 finished CTA #2 (3203,0), 5 CTAs running
GPGPU-Sim uArch: core: 11, cta: 2 initialized @(3204,0)
GPGPU-Sim uArch: Shader 6 finished CTA #2 (3216,0), 5 CTAs running
GPGPU-Sim uArch: Shader 13 finished CTA #2 (3216,0), 5 CTAs running
GPGPU-Sim uArch: core: 13, cta: 2 initialized @(3217,0)
GPGPU-Sim uArch: core:  6, cta: 2 initialized @(3217,0)
GPGPU-Sim uArch: Shader 4 finished CTA #3 (3220,0), 5 CTAs running
GPGPU-Sim uArch: core:  4, cta: 3 initialized @(3221,0)
GPGPU-Sim uArch: Shader 0 finished CTA #2 (3229,0), 5 CTAs running
GPGPU-Sim uArch: core:  0, cta: 2 initialized @(3230,0)
GPGPU-Sim uArch: Shader 2 finished CTA #3 (3284,0), 5 CTAs running
GPGPU-Sim uArch: core:  2, cta: 3 initialized @(3285,0)
GPGPU-Sim uArch: Shader 7 finished CTA #4 (3288,0), 5 CTAs running
GPGPU-Sim uArch: core:  7, cta: 4 initialized @(3289,0)
GPGPU-Sim uArch: Shader 7 finished CTA #3 (3313,0), 5 CTAs running
GPGPU-Sim uArch: core:  7, cta: 3 initialized @(3314,0)
GPGPU-Sim uArch: Shader 8 finished CTA #3 (3337,0), 5 CTAs running
GPGPU-Sim uArch: core:  8, cta: 3 initialized @(3338,0)
GPGPU-Sim uArch: Shader 4 finished CTA #4 (3348,0), 5 CTAs running
GPGPU-Sim uArch: core:  4, cta: 4 initialized @(3349,0)
GPGPU-Sim uArch: Shader 10 finished CTA #2 (3404,0), 5 CTAs running
GPGPU-Sim uArch: core: 10, cta: 2 initialized @(3405,0)
GPGPU-Sim uArch: Shader 9 finished CTA #3 (3405,0), 5 CTAs running
GPGPU-Sim uArch: core:  9, cta: 3 initialized @(3406,0)
GPGPU-Sim uArch: Shader 2 finished CTA #4 (3409,0), 5 CTAs running
GPGPU-Sim uArch: core:  2, cta: 4 initialized @(3410,0)
GPGPU-Sim uArch: Shader 5 finished CTA #4 (3411,0), 5 CTAs running
GPGPU-Sim uArch: core:  5, cta: 4 initialized @(3412,0)
GPGPU-Sim PTX: 700000 instructions simulated : ctaid=(10,5,0) tid=(255,0,0)
GPGPU-Sim uArch: Shader 6 finished CTA #3 (3464,0), 5 CTAs running
GPGPU-Sim uArch: core:  6, cta: 3 initialized @(3465,0)
GPGPU-Sim uArch: Shader 5 finished CTA #3 (3466,0), 5 CTAs running
GPGPU-Sim uArch: core:  5, cta: 3 initialized @(3467,0)
GPGPU-Sim uArch: Shader 10 finished CTA #3 (3482,0), 5 CTAs running
GPGPU-Sim uArch: core: 10, cta: 3 initialized @(3483,0)
GPGPU-Sim uArch: Shader 11 finished CTA #3 (3506,0), 5 CTAs running
GPGPU-Sim uArch: core: 11, cta: 3 initialized @(3507,0)
GPGPU-Sim uArch: Shader 3 finished CTA #3 (3509,0), 5 CTAs running
GPGPU-Sim uArch: core:  3, cta: 3 initialized @(3510,0)
GPGPU-Sim uArch: Shader 4 finished CTA #5 (3574,0), 5 CTAs running
GPGPU-Sim uArch: core:  4, cta: 5 initialized @(3575,0)
GPGPU-Sim uArch: Shader 10 finished CTA #4 (3576,0), 5 CTAs running
GPGPU-Sim uArch: core: 10, cta: 4 initialized @(3577,0)
GPGPU-Sim uArch: Shader 8 finished CTA #4 (3592,0), 5 CTAs running
GPGPU-Sim uArch: core:  8, cta: 4 initialized @(3593,0)
GPGPU-Sim uArch: Shader 0 finished CTA #3 (3641,0), 5 CTAs running
GPGPU-Sim uArch: core:  0, cta: 3 initialized @(3642,0)
GPGPU-Sim uArch: Shader 1 finished CTA #3 (3650,0), 5 CTAs running
GPGPU-Sim uArch: core:  1, cta: 3 initialized @(3651,0)
GPGPU-Sim uArch: Shader 12 finished CTA #4 (3657,0), 5 CTAs running
GPGPU-Sim uArch: core: 12, cta: 4 initialized @(3658,0)
GPGPU-Sim uArch: Shader 7 finished CTA #5 (3693,0), 5 CTAs running
GPGPU-Sim uArch: core:  7, cta: 5 initialized @(3694,0)
GPGPU-Sim uArch: Shader 5 finished CTA #5 (3706,0), 5 CTAs running
GPGPU-Sim uArch: core:  5, cta: 5 initialized @(3707,0)
GPGPU-Sim uArch: Shader 0 finished CTA #4 (3707,0), 5 CTAs running
GPGPU-Sim uArch: core:  0, cta: 4 initialized @(3708,0)
GPGPU-Sim uArch: Shader 11 finished CTA #4 (3742,0), 5 CTAs running
GPGPU-Sim uArch: core: 11, cta: 4 initialized @(3743,0)
GPGPU-Sim uArch: Shader 2 finished CTA #5 (3751,0), 5 CTAs running
GPGPU-Sim uArch: core:  2, cta: 5 initialized @(3752,0)
GPGPU-Sim uArch: Shader 13 finished CTA #3 (3829,0), 5 CTAs running
GPGPU-Sim uArch: core: 13, cta: 3 initialized @(3830,0)
GPGPU-Sim PTX: 800000 instructions simulated : ctaid=(21,5,0) tid=(31,0,0)
GPGPU-Sim uArch: Shader 1 finished CTA #4 (3865,0), 5 CTAs running
GPGPU-Sim uArch: core:  1, cta: 4 initialized @(3866,0)
GPGPU-Sim uArch: Shader 6 finished CTA #4 (3893,0), 5 CTAs running
GPGPU-Sim uArch: core:  6, cta: 4 initialized @(3894,0)
GPGPU-Sim uArch: Shader 3 finished CTA #4 (3939,0), 5 CTAs running
GPGPU-Sim uArch: core:  3, cta: 4 initialized @(3940,0)
GPGPU-Sim uArch: Shader 4 finished CTA #0 (3984,0), 5 CTAs running
GPGPU-Sim uArch: core:  4, cta: 0 initialized @(3985,0)
GPGPU-Sim uArch: Shader 12 finished CTA #5 (3987,0), 5 CTAs running
GPGPU-Sim uArch: core: 12, cta: 5 initialized @(3988,0)
GPGPU-Sim uArch: cycles simulated: 4000  inst.: 839744 (ipc=209.9) sim_rate=209936 (inst/sec) elapsed = 0:0:00:04 / Sun Mar 23 01:56:30 2014
GPGPU-Sim uArch: Shader 10 finished CTA #5 (4097,0), 5 CTAs running
GPGPU-Sim uArch: core: 10, cta: 5 initialized @(4098,0)
GPGPU-Sim uArch: Shader 6 finished CTA #5 (4104,0), 5 CTAs running
GPGPU-Sim uArch: core:  6, cta: 5 initialized @(4105,0)
GPGPU-Sim uArch: Shader 0 finished CTA #5 (4108,0), 5 CTAs running
GPGPU-Sim uArch: core:  0, cta: 5 initialized @(4109,0)
GPGPU-Sim uArch: Shader 12 finished CTA #0 (4109,0), 5 CTAs running
GPGPU-Sim uArch: core: 12, cta: 0 initialized @(4110,0)
GPGPU-Sim uArch: Shader 2 finished CTA #0 (4134,0), 5 CTAs running
GPGPU-Sim uArch: core:  2, cta: 0 initialized @(4135,0)
GPGPU-Sim uArch: Shader 4 finished CTA #1 (4140,0), 5 CTAs running
GPGPU-Sim uArch: core:  4, cta: 1 initialized @(4141,0)
GPGPU-Sim uArch: Shader 11 finished CTA #5 (4149,0), 5 CTAs running
GPGPU-Sim uArch: core: 11, cta: 5 initialized @(4150,0)
GPGPU-Sim uArch: Shader 8 finished CTA #5 (4166,0), 5 CTAs running
GPGPU-Sim uArch: core:  8, cta: 5 initialized @(4167,0)
GPGPU-Sim uArch: Shader 9 finished CTA #4 (4175,0), 5 CTAs running
GPGPU-Sim uArch: core:  9, cta: 4 initialized @(4176,0)
GPGPU-Sim uArch: Shader 7 finished CTA #0 (4185,0), 5 CTAs running
GPGPU-Sim uArch: core:  7, cta: 0 initialized @(4186,0)
GPGPU-Sim uArch: Shader 2 finished CTA #1 (4211,0), 5 CTAs running
GPGPU-Sim uArch: core:  2, cta: 1 initialized @(4212,0)
GPGPU-Sim uArch: Shader 11 finished CTA #0 (4247,0), 5 CTAs running
GPGPU-Sim uArch: core: 11, cta: 0 initialized @(4248,0)
GPGPU-Sim uArch: Shader 13 finished CTA #4 (4283,0), 5 CTAs running
GPGPU-Sim uArch: core: 13, cta: 4 initialized @(4284,0)
GPGPU-Sim uArch: Shader 0 finished CTA #0 (4286,0), 5 CTAs running
GPGPU-Sim uArch: core:  0, cta: 0 initialized @(4287,0)
GPGPU-Sim uArch: Shader 7 finished CTA #1 (4312,0), 5 CTAs running
GPGPU-Sim uArch: core:  7, cta: 1 initialized @(4313,0)
GPGPU-Sim uArch: Shader 6 finished CTA #0 (4334,0), 5 CTAs running
GPGPU-Sim uArch: core:  6, cta: 0 initialized @(4335,0)
GPGPU-Sim uArch: Shader 1 finished CTA #5 (4335,0), 5 CTAs running
GPGPU-Sim uArch: core:  1, cta: 5 initialized @(4336,0)
GPGPU-Sim PTX: 900000 instructions simulated : ctaid=(22,6,0) tid=(95,0,0)
GPGPU-Sim uArch: Shader 3 finished CTA #5 (4341,0), 5 CTAs running
GPGPU-Sim uArch: core:  3, cta: 5 initialized @(4342,0)
GPGPU-Sim uArch: Shader 1 finished CTA #0 (4344,0), 5 CTAs running
GPGPU-Sim uArch: core:  1, cta: 0 initialized @(4345,0)
GPGPU-Sim uArch: Shader 5 finished CTA #0 (4376,0), 5 CTAs running
GPGPU-Sim uArch: core:  5, cta: 0 initialized @(4377,0)
GPGPU-Sim uArch: Shader 0 finished CTA #1 (4382,0), 5 CTAs running
GPGPU-Sim uArch: core:  0, cta: 1 initialized @(4383,0)
GPGPU-Sim uArch: Shader 12 finished CTA #1 (4387,0), 5 CTAs running
GPGPU-Sim uArch: core: 12, cta: 1 initialized @(4388,0)
GPGPU-Sim uArch: Shader 8 finished CTA #0 (4429,0), 5 CTAs running
GPGPU-Sim uArch: core:  8, cta: 0 initialized @(4430,0)
GPGPU-Sim uArch: Shader 10 finished CTA #0 (4448,0), 5 CTAs running
GPGPU-Sim uArch: core: 10, cta: 0 initialized @(4449,0)
GPGPU-Sim uArch: Shader 6 finished CTA #1 (4451,0), 5 CTAs running
GPGPU-Sim uArch: core:  6, cta: 1 initialized @(4452,0)
GPGPU-Sim uArch: Shader 3 finished CTA #1 (4510,0), 5 CTAs running
GPGPU-Sim uArch: core:  3, cta: 1 initialized @(4511,0)
GPGPU-Sim uArch: Shader 8 finished CTA #1 (4530,0), 5 CTAs running
GPGPU-Sim uArch: core:  8, cta: 1 initialized @(4531,0)
GPGPU-Sim uArch: Shader 5 finished CTA #1 (4531,0), 5 CTAs running
GPGPU-Sim uArch: core:  5, cta: 1 initialized @(4532,0)
GPGPU-Sim uArch: Shader 4 finished CTA #2 (4550,0), 5 CTAs running
GPGPU-Sim uArch: core:  4, cta: 2 initialized @(4551,0)
GPGPU-Sim uArch: Shader 12 finished CTA #2 (4554,0), 5 CTAs running
GPGPU-Sim uArch: core: 12, cta: 2 initialized @(4555,0)
GPGPU-Sim uArch: Shader 13 finished CTA #5 (4586,0), 5 CTAs running
GPGPU-Sim uArch: core: 13, cta: 5 initialized @(4587,0)
GPGPU-Sim uArch: Shader 9 finished CTA #5 (4590,0), 5 CTAs running
GPGPU-Sim uArch: core:  9, cta: 5 initialized @(4591,0)
GPGPU-Sim uArch: Shader 3 finished CTA #0 (4591,0), 5 CTAs running
GPGPU-Sim uArch: core:  3, cta: 0 initialized @(4592,0)
GPGPU-Sim PTX: 1000000 instructions simulated : ctaid=(12,7,0) tid=(191,0,0)
GPGPU-Sim uArch: Shader 11 finished CTA #2 (4633,0), 5 CTAs running
GPGPU-Sim uArch: core: 11, cta: 2 initialized @(4634,0)
GPGPU-Sim uArch: Shader 10 finished CTA #1 (4636,0), 5 CTAs running
GPGPU-Sim uArch: core: 10, cta: 1 initialized @(4637,0)
GPGPU-Sim uArch: Shader 9 finished CTA #0 (4638,0), 5 CTAs running
GPGPU-Sim uArch: core:  9, cta: 0 initialized @(4639,0)
GPGPU-Sim uArch: Shader 11 finished CTA #1 (4650,0), 5 CTAs running
GPGPU-Sim uArch: core: 11, cta: 1 initialized @(4651,0)
GPGPU-Sim uArch: Shader 2 finished CTA #2 (4683,0), 5 CTAs running
GPGPU-Sim uArch: core:  2, cta: 2 initialized @(4684,0)
GPGPU-Sim uArch: Shader 0 finished CTA #2 (4752,0), 5 CTAs running
GPGPU-Sim uArch: core:  0, cta: 2 initialized @(4753,0)
GPGPU-Sim uArch: Shader 1 finished CTA #1 (4790,0), 5 CTAs running
GPGPU-Sim uArch: Shader 13 finished CTA #0 (4790,0), 5 CTAs running
GPGPU-Sim uArch: core:  1, cta: 1 initialized @(4791,0)
GPGPU-Sim uArch: core: 13, cta: 0 initialized @(4791,0)
GPGPU-Sim uArch: Shader 8 finished CTA #2 (4792,0), 5 CTAs running
GPGPU-Sim uArch: core:  8, cta: 2 initialized @(4793,0)
GPGPU-Sim uArch: Shader 12 finished CTA #3 (4846,0), 5 CTAs running
GPGPU-Sim uArch: core: 12, cta: 3 initialized @(4847,0)
GPGPU-Sim uArch: Shader 9 finished CTA #1 (4891,0), 5 CTAs running
GPGPU-Sim uArch: core:  9, cta: 1 initialized @(4892,0)
GPGPU-Sim uArch: Shader 7 finished CTA #2 (4943,0), 5 CTAs running
GPGPU-Sim uArch: core:  7, cta: 2 initialized @(4944,0)
GPGPU-Sim uArch: Shader 1 finished CTA #2 (4970,0), 5 CTAs running
GPGPU-Sim uArch: core:  1, cta: 2 initialized @(4971,0)
GPGPU-Sim uArch: Shader 10 finished CTA #2 (4972,0), 5 CTAs running
GPGPU-Sim uArch: core: 10, cta: 2 initialized @(4973,0)
GPGPU-Sim uArch: Shader 2 finished CTA #3 (4994,0), 5 CTAs running
GPGPU-Sim uArch: core:  2, cta: 3 initialized @(4995,0)
GPGPU-Sim uArch: cycles simulated: 5000  inst.: 1084928 (ipc=217.0) sim_rate=216985 (inst/sec) elapsed = 0:0:00:05 / Sun Mar 23 01:56:31 2014
GPGPU-Sim uArch: Shader 4 finished CTA #3 (5010,0), 5 CTAs running
GPGPU-Sim uArch: core:  4, cta: 3 initialized @(5011,0)
GPGPU-Sim uArch: Shader 5 finished CTA #2 (5019,0), 5 CTAs running
GPGPU-Sim uArch: core:  5, cta: 2 initialized @(5020,0)
GPGPU-Sim uArch: Shader 6 finished CTA #2 (5053,0), 5 CTAs running
GPGPU-Sim PTX: 1100000 instructions simulated : ctaid=(4,8,0) tid=(255,0,0)
GPGPU-Sim uArch: core:  6, cta: 2 initialized @(5054,0)
GPGPU-Sim uArch: Shader 12 finished CTA #4 (5091,0), 5 CTAs running
GPGPU-Sim uArch: core: 12, cta: 4 initialized @(5092,0)
GPGPU-Sim uArch: Shader 8 finished CTA #3 (5140,0), 5 CTAs running
GPGPU-Sim uArch: core:  8, cta: 3 initialized @(5141,0)
GPGPU-Sim uArch: Shader 9 finished CTA #2 (5172,0), 5 CTAs running
GPGPU-Sim uArch: core:  9, cta: 2 initialized @(5173,0)
GPGPU-Sim uArch: Shader 8 finished CTA #4 (5186,0), 5 CTAs running
GPGPU-Sim uArch: core:  8, cta: 4 initialized @(5187,0)
GPGPU-Sim uArch: Shader 13 finished CTA #1 (5240,0), 5 CTAs running
GPGPU-Sim uArch: core: 13, cta: 1 initialized @(5241,0)
GPGPU-Sim uArch: Shader 3 finished CTA #2 (5281,0), 5 CTAs running
GPGPU-Sim uArch: core:  3, cta: 2 initialized @(5282,0)
GPGPU-Sim uArch: Shader 8 finished CTA #5 (5291,0), 5 CTAs running
GPGPU-Sim uArch: core:  8, cta: 5 initialized @(5292,0)
GPGPU-Sim uArch: Shader 0 finished CTA #3 (5317,0), 5 CTAs running
GPGPU-Sim uArch: core:  0, cta: 3 initialized @(5318,0)
GPGPU-Sim uArch: Shader 4 finished CTA #4 (5335,0), 5 CTAs running
GPGPU-Sim uArch: core:  4, cta: 4 initialized @(5336,0)
GPGPU-Sim uArch: Shader 6 finished CTA #3 (5364,0), 5 CTAs running
GPGPU-Sim uArch: core:  6, cta: 3 initialized @(5365,0)
GPGPU-Sim uArch: Shader 2 finished CTA #4 (5394,0), 5 CTAs running
GPGPU-Sim uArch: core:  2, cta: 4 initialized @(5395,0)
GPGPU-Sim uArch: Shader 7 finished CTA #4 (5407,0), 5 CTAs running
GPGPU-Sim uArch: core:  7, cta: 4 initialized @(5408,0)
GPGPU-Sim uArch: Shader 11 finished CTA #3 (5413,0), 5 CTAs running
GPGPU-Sim uArch: core: 11, cta: 3 initialized @(5414,0)
GPGPU-Sim uArch: Shader 13 finished CTA #2 (5420,0), 5 CTAs running
GPGPU-Sim uArch: core: 13, cta: 2 initialized @(5421,0)
GPGPU-Sim uArch: Shader 1 finished CTA #3 (5451,0), 5 CTAs running
GPGPU-Sim uArch: core:  1, cta: 3 initialized @(5452,0)
GPGPU-Sim uArch: Shader 3 finished CTA #3 (5507,0), 5 CTAs running
GPGPU-Sim uArch: core:  3, cta: 3 initialized @(5508,0)
GPGPU-Sim uArch: Shader 5 finished CTA #4 (5549,0), 5 CTAs running
GPGPU-Sim uArch: core:  5, cta: 4 initialized @(5550,0)
GPGPU-Sim PTX: 1200000 instructions simulated : ctaid=(23,8,0) tid=(255,0,0)
GPGPU-Sim uArch: Shader 9 finished CTA #3 (5578,0), 5 CTAs running
GPGPU-Sim uArch: core:  9, cta: 3 initialized @(5579,0)
GPGPU-Sim uArch: Shader 10 finished CTA #3 (5585,0), 5 CTAs running
GPGPU-Sim uArch: core: 10, cta: 3 initialized @(5586,0)
GPGPU-Sim uArch: Shader 1 finished CTA #4 (5642,0), 5 CTAs running
GPGPU-Sim uArch: core:  1, cta: 4 initialized @(5643,0)
GPGPU-Sim uArch: Shader 0 finished CTA #4 (5658,0), 5 CTAs running
GPGPU-Sim uArch: core:  0, cta: 4 initialized @(5659,0)
GPGPU-Sim uArch: Shader 13 finished CTA #3 (5710,0), 5 CTAs running
GPGPU-Sim uArch: core: 13, cta: 3 initialized @(5711,0)
GPGPU-Sim uArch: Shader 12 finished CTA #5 (5737,0), 5 CTAs running
GPGPU-Sim uArch: core: 12, cta: 5 initialized @(5738,0)
GPGPU-Sim uArch: Shader 8 finished CTA #0 (5746,0), 5 CTAs running
GPGPU-Sim uArch: core:  8, cta: 0 initialized @(5747,0)
GPGPU-Sim uArch: Shader 2 finished CTA #5 (5796,0), 5 CTAs running
GPGPU-Sim uArch: core:  2, cta: 5 initialized @(5797,0)
GPGPU-Sim uArch: Shader 13 finished CTA #4 (5821,0), 5 CTAs running
GPGPU-Sim uArch: core: 13, cta: 4 initialized @(5822,0)
GPGPU-Sim uArch: Shader 3 finished CTA #4 (5832,0), 5 CTAs running
GPGPU-Sim uArch: core:  3, cta: 4 initialized @(5833,0)
GPGPU-Sim uArch: Shader 5 finished CTA #3 (5837,0), 5 CTAs running
GPGPU-Sim uArch: core:  5, cta: 3 initialized @(5838,0)
GPGPU-Sim uArch: Shader 6 finished CTA #4 (5852,0), 5 CTAs running
GPGPU-Sim uArch: core:  6, cta: 4 initialized @(5853,0)
GPGPU-Sim uArch: Shader 11 finished CTA #4 (5888,0), 5 CTAs running
GPGPU-Sim uArch: core: 11, cta: 4 initialized @(5889,0)
GPGPU-Sim uArch: Shader 4 finished CTA #5 (5890,0), 5 CTAs running
GPGPU-Sim uArch: core:  4, cta: 5 initialized @(5891,0)
GPGPU-Sim uArch: Shader 7 finished CTA #3 (5904,0), 5 CTAs running
GPGPU-Sim uArch: core:  7, cta: 3 initialized @(5905,0)
GPGPU-Sim uArch: Shader 10 finished CTA #4 (5955,0), 5 CTAs running
GPGPU-Sim uArch: core: 10, cta: 4 initialized @(5956,0)
GPGPU-Sim uArch: cycles simulated: 6000  inst.: 1285824 (ipc=214.3) sim_rate=214304 (inst/sec) elapsed = 0:0:00:06 / Sun Mar 23 01:56:32 2014
GPGPU-Sim uArch: Shader 5 finished CTA #5 (6013,0), 5 CTAs running
GPGPU-Sim uArch: core:  5, cta: 5 initialized @(6014,0)
GPGPU-Sim PTX: 1300000 instructions simulated : ctaid=(6,9,0) tid=(223,0,0)
GPGPU-Sim uArch: Shader 13 finished CTA #5 (6068,0), 5 CTAs running
GPGPU-Sim uArch: core: 13, cta: 5 initialized @(6069,0)
GPGPU-Sim uArch: Shader 9 finished CTA #4 (6074,0), 5 CTAs running
GPGPU-Sim uArch: core:  9, cta: 4 initialized @(6075,0)
GPGPU-Sim uArch: Shader 4 finished CTA #0 (6134,0), 5 CTAs running
GPGPU-Sim uArch: core:  4, cta: 0 initialized @(6135,0)
GPGPU-Sim uArch: Shader 8 finished CTA #1 (6188,0), 5 CTAs running
GPGPU-Sim uArch: core:  8, cta: 1 initialized @(6189,0)
GPGPU-Sim uArch: Shader 12 finished CTA #0 (6192,0), 5 CTAs running
GPGPU-Sim uArch: core: 12, cta: 0 initialized @(6193,0)
GPGPU-Sim uArch: Shader 1 finished CTA #5 (6194,0), 5 CTAs running
GPGPU-Sim uArch: core:  1, cta: 5 initialized @(6195,0)
GPGPU-Sim uArch: Shader 1 finished CTA #0 (6268,0), 5 CTAs running
GPGPU-Sim uArch: core:  1, cta: 0 initialized @(6269,0)
GPGPU-Sim uArch: Shader 7 finished CTA #5 (6300,0), 5 CTAs running
GPGPU-Sim uArch: core:  7, cta: 5 initialized @(6301,0)
GPGPU-Sim uArch: Shader 5 finished CTA #0 (6311,0), 5 CTAs running
GPGPU-Sim uArch: core:  5, cta: 0 initialized @(6312,0)
GPGPU-Sim uArch: Shader 4 finished CTA #1 (6347,0), 5 CTAs running
GPGPU-Sim uArch: core:  4, cta: 1 initialized @(6348,0)
GPGPU-Sim uArch: Shader 6 finished CTA #5 (6381,0), 5 CTAs running
GPGPU-Sim uArch: core:  6, cta: 5 initialized @(6382,0)
GPGPU-Sim uArch: Shader 11 finished CTA #0 (6444,0), 5 CTAs running
GPGPU-Sim uArch: core: 11, cta: 0 initialized @(6445,0)
GPGPU-Sim uArch: Shader 13 finished CTA #0 (6450,0), 5 CTAs running
GPGPU-Sim uArch: core: 13, cta: 0 initialized @(6451,0)
GPGPU-Sim uArch: Shader 11 finished CTA #5 (6461,0), 5 CTAs running
GPGPU-Sim uArch: core: 11, cta: 5 initialized @(6462,0)
GPGPU-Sim uArch: Shader 3 finished CTA #5 (6490,0), 5 CTAs running
GPGPU-Sim uArch: core:  3, cta: 5 initialized @(6491,0)
GPGPU-Sim uArch: Shader 12 finished CTA #1 (6542,0), 5 CTAs running
GPGPU-Sim uArch: core: 12, cta: 1 initialized @(6543,0)
GPGPU-Sim uArch: Shader 8 finished CTA #2 (6550,0), 5 CTAs running
GPGPU-Sim uArch: core:  8, cta: 2 initialized @(6551,0)
GPGPU-Sim uArch: Shader 2 finished CTA #0 (6556,0), 5 CTAs running
GPGPU-Sim uArch: core:  2, cta: 0 initialized @(6557,0)
GPGPU-Sim PTX: 1400000 instructions simulated : ctaid=(6,10,0) tid=(223,0,0)
GPGPU-Sim uArch: Shader 9 finished CTA #5 (6588,0), 5 CTAs running
GPGPU-Sim uArch: core:  9, cta: 5 initialized @(6589,0)
GPGPU-Sim uArch: Shader 13 finished CTA #1 (6616,0), 5 CTAs running
GPGPU-Sim uArch: core: 13, cta: 1 initialized @(6617,0)
GPGPU-Sim uArch: Shader 4 finished CTA #2 (6642,0), 5 CTAs running
GPGPU-Sim uArch: core:  4, cta: 2 initialized @(6643,0)
GPGPU-Sim uArch: Shader 7 finished CTA #0 (6662,0), 5 CTAs running
GPGPU-Sim uArch: core:  7, cta: 0 initialized @(6663,0)
GPGPU-Sim uArch: Shader 1 finished CTA #1 (6693,0), 5 CTAs running
GPGPU-Sim uArch: core:  1, cta: 1 initialized @(6694,0)
GPGPU-Sim uArch: Shader 10 finished CTA #5 (6697,0), 5 CTAs running
GPGPU-Sim uArch: core: 10, cta: 5 initialized @(6698,0)
GPGPU-Sim uArch: Shader 12 finished CTA #2 (6704,0), 5 CTAs running
GPGPU-Sim uArch: core: 12, cta: 2 initialized @(6705,0)
GPGPU-Sim uArch: Shader 3 finished CTA #1 (6772,0), 5 CTAs running
GPGPU-Sim uArch: core:  3, cta: 1 initialized @(6773,0)
GPGPU-Sim uArch: Shader 12 finished CTA #3 (6795,0), 5 CTAs running
GPGPU-Sim uArch: core: 12, cta: 3 initialized @(6796,0)
GPGPU-Sim uArch: Shader 5 finished CTA #1 (6830,0), 5 CTAs running
GPGPU-Sim uArch: core:  5, cta: 1 initialized @(6831,0)
GPGPU-Sim uArch: Shader 4 finished CTA #4 (6843,0), 5 CTAs running
GPGPU-Sim uArch: core:  4, cta: 4 initialized @(6844,0)
GPGPU-Sim uArch: Shader 2 finished CTA #1 (6847,0), 5 CTAs running
GPGPU-Sim uArch: core:  2, cta: 1 initialized @(6848,0)
GPGPU-Sim uArch: Shader 12 finished CTA #4 (6863,0), 5 CTAs running
GPGPU-Sim uArch: core: 12, cta: 4 initialized @(6864,0)
GPGPU-Sim uArch: Shader 4 finished CTA #3 (6871,0), 5 CTAs running
GPGPU-Sim uArch: core:  4, cta: 3 initialized @(6872,0)
GPGPU-Sim uArch: Shader 11 finished CTA #2 (6927,0), 5 CTAs running
GPGPU-Sim uArch: core: 11, cta: 2 initialized @(6928,0)
GPGPU-Sim uArch: Shader 0 finished CTA #5 (6930,0), 5 CTAs running
GPGPU-Sim uArch: core:  0, cta: 5 initialized @(6931,0)
GPGPU-Sim PTX: 1500000 instructions simulated : ctaid=(20,10,0) tid=(255,0,0)
GPGPU-Sim uArch: Shader 13 finished CTA #2 (6970,0), 5 CTAs running
GPGPU-Sim uArch: core: 13, cta: 2 initialized @(6971,0)
GPGPU-Sim uArch: Shader 9 finished CTA #0 (6986,0), 5 CTAs running
GPGPU-Sim uArch: core:  9, cta: 0 initialized @(6987,0)
GPGPU-Sim uArch: Shader 1 finished CTA #2 (7002,0), 5 CTAs running
GPGPU-Sim uArch: core:  1, cta: 2 initialized @(7003,0)
GPGPU-Sim uArch: Shader 0 finished CTA #0 (7018,0), 5 CTAs running
GPGPU-Sim uArch: core:  0, cta: 0 initialized @(7019,0)
GPGPU-Sim uArch: Shader 7 finished CTA #1 (7055,0), 5 CTAs running
GPGPU-Sim uArch: core:  7, cta: 1 initialized @(7056,0)
GPGPU-Sim uArch: Shader 11 finished CTA #1 (7062,0), 5 CTAs running
GPGPU-Sim uArch: core: 11, cta: 1 initialized @(7063,0)
GPGPU-Sim uArch: Shader 2 finished CTA #2 (7064,0), 5 CTAs running
GPGPU-Sim uArch: core:  2, cta: 2 initialized @(7065,0)
GPGPU-Sim uArch: Shader 0 finished CTA #1 (7130,0), 5 CTAs running
GPGPU-Sim uArch: core:  0, cta: 1 initialized @(7131,0)
GPGPU-Sim uArch: Shader 9 finished CTA #1 (7138,0), 5 CTAs running
GPGPU-Sim uArch: core:  9, cta: 1 initialized @(7139,0)
GPGPU-Sim uArch: Shader 6 finished CTA #0 (7168,0), 5 CTAs running
GPGPU-Sim uArch: core:  6, cta: 0 initialized @(7169,0)
GPGPU-Sim uArch: Shader 10 finished CTA #0 (7197,0), 5 CTAs running
GPGPU-Sim uArch: core: 10, cta: 0 initialized @(7198,0)
GPGPU-Sim uArch: Shader 5 finished CTA #2 (7236,0), 5 CTAs running
GPGPU-Sim uArch: core:  5, cta: 2 initialized @(7237,0)
GPGPU-Sim uArch: Shader 3 finished CTA #0 (7251,0), 5 CTAs running
GPGPU-Sim uArch: core:  3, cta: 0 initialized @(7252,0)
GPGPU-Sim uArch: Shader 1 finished CTA #3 (7268,0), 5 CTAs running
GPGPU-Sim uArch: core:  1, cta: 3 initialized @(7269,0)
GPGPU-Sim uArch: Shader 0 finished CTA #2 (7318,0), 5 CTAs running
GPGPU-Sim uArch: core:  0, cta: 2 initialized @(7319,0)
GPGPU-Sim uArch: Shader 12 finished CTA #5 (7322,0), 5 CTAs running
GPGPU-Sim uArch: core: 12, cta: 5 initialized @(7323,0)
GPGPU-Sim uArch: Shader 4 finished CTA #5 (7346,0), 5 CTAs running
GPGPU-Sim uArch: core:  4, cta: 5 initialized @(7347,0)
GPGPU-Sim uArch: Shader 0 finished CTA #3 (7364,0), 5 CTAs running
GPGPU-Sim uArch: core:  0, cta: 3 initialized @(7365,0)
GPGPU-Sim uArch: Shader 7 finished CTA #2 (7381,0), 5 CTAs running
GPGPU-Sim uArch: core:  7, cta: 2 initialized @(7382,0)
GPGPU-Sim PTX: 1600000 instructions simulated : ctaid=(11,11,0) tid=(63,0,0)
GPGPU-Sim uArch: Shader 1 finished CTA #4 (7468,0), 5 CTAs running
GPGPU-Sim uArch: core:  1, cta: 4 initialized @(7469,0)
GPGPU-Sim uArch: Shader 3 finished CTA #2 (7498,0), 5 CTAs running
GPGPU-Sim uArch: core:  3, cta: 2 initialized @(7499,0)
GPGPU-Sim uArch: Shader 6 finished CTA #1 (7499,0), 5 CTAs running
GPGPU-Sim uArch: core:  6, cta: 1 initialized @(7500,0)
GPGPU-Sim uArch: cycles simulated: 7500  inst.: 1613408 (ipc=215.1) sim_rate=230486 (inst/sec) elapsed = 0:0:00:07 / Sun Mar 23 01:56:33 2014
GPGPU-Sim uArch: Shader 7 finished CTA #4 (7501,0), 5 CTAs running
GPGPU-Sim uArch: core:  7, cta: 4 initialized @(7502,0)
GPGPU-Sim uArch: Shader 11 finished CTA #3 (7516,0), 5 CTAs running
GPGPU-Sim uArch: core: 11, cta: 3 initialized @(7517,0)
GPGPU-Sim uArch: Shader 5 finished CTA #4 (7600,0), 5 CTAs running
GPGPU-Sim uArch: core:  5, cta: 4 initialized @(7601,0)
GPGPU-Sim uArch: Shader 2 finished CTA #3 (7646,0), 5 CTAs running
GPGPU-Sim uArch: core:  2, cta: 3 initialized @(7647,0)
GPGPU-Sim uArch: Shader 4 finished CTA #0 (7682,0), 5 CTAs running
GPGPU-Sim uArch: core:  4, cta: 0 initialized @(7683,0)
GPGPU-Sim uArch: Shader 9 finished CTA #2 (7695,0), 5 CTAs running
GPGPU-Sim uArch: core:  9, cta: 2 initialized @(7696,0)
GPGPU-Sim uArch: Shader 0 finished CTA #4 (7802,0), 5 CTAs running
GPGPU-Sim uArch: core:  0, cta: 4 initialized @(7803,0)
GPGPU-Sim uArch: Shader 4 finished CTA #1 (7820,0), 5 CTAs running
GPGPU-Sim uArch: core:  4, cta: 1 initialized @(7821,0)
GPGPU-Sim uArch: Shader 10 finished CTA #1 (7833,0), 5 CTAs running
GPGPU-Sim uArch: core: 10, cta: 1 initialized @(7834,0)
GPGPU-Sim uArch: Shader 8 finished CTA #3 (7838,0), 5 CTAs running
GPGPU-Sim uArch: core:  8, cta: 3 initialized @(7839,0)
GPGPU-Sim uArch: Shader 13 finished CTA #3 (7839,0), 5 CTAs running
GPGPU-Sim uArch: core: 13, cta: 3 initialized @(7840,0)
GPGPU-Sim uArch: Shader 7 finished CTA #3 (7868,0), 5 CTAs running
GPGPU-Sim uArch: core:  7, cta: 3 initialized @(7869,0)
GPGPU-Sim uArch: Shader 1 finished CTA #5 (7939,0), 5 CTAs running
GPGPU-Sim uArch: core:  1, cta: 5 initialized @(7940,0)
GPGPU-Sim PTX: 1700000 instructions simulated : ctaid=(2,12,0) tid=(223,0,0)
GPGPU-Sim uArch: Shader 7 finished CTA #5 (7951,0), 5 CTAs running
GPGPU-Sim uArch: core:  7, cta: 5 initialized @(7952,0)
GPGPU-Sim uArch: Shader 2 finished CTA #4 (7955,0), 5 CTAs running
GPGPU-Sim uArch: core:  2, cta: 4 initialized @(7956,0)
GPGPU-Sim uArch: Shader 5 finished CTA #3 (7996,0), 5 CTAs running
GPGPU-Sim uArch: core:  5, cta: 3 initialized @(7997,0)
GPGPU-Sim uArch: Shader 9 finished CTA #3 (8002,0), 5 CTAs running
GPGPU-Sim uArch: core:  9, cta: 3 initialized @(8003,0)
GPGPU-Sim uArch: Shader 6 finished CTA #2 (8033,0), 5 CTAs running
GPGPU-Sim uArch: core:  6, cta: 2 initialized @(8034,0)
GPGPU-Sim uArch: Shader 3 finished CTA #3 (8037,0), 5 CTAs running
GPGPU-Sim uArch: core:  3, cta: 3 initialized @(8038,0)
GPGPU-Sim uArch: Shader 4 finished CTA #2 (8052,0), 5 CTAs running
GPGPU-Sim uArch: core:  4, cta: 2 initialized @(8053,0)
GPGPU-Sim uArch: Shader 11 finished CTA #4 (8060,0), 5 CTAs running
GPGPU-Sim uArch: core: 11, cta: 4 initialized @(8061,0)
GPGPU-Sim uArch: Shader 10 finished CTA #2 (8066,0), 5 CTAs running
GPGPU-Sim uArch: core: 10, cta: 2 initialized @(8067,0)
GPGPU-Sim uArch: Shader 13 finished CTA #4 (8074,0), 5 CTAs running
GPGPU-Sim uArch: core: 13, cta: 4 initialized @(8075,0)
GPGPU-Sim uArch: Shader 5 finished CTA #5 (8097,0), 5 CTAs running
GPGPU-Sim uArch: core:  5, cta: 5 initialized @(8098,0)
GPGPU-Sim uArch: Shader 12 finished CTA #0 (8115,0), 5 CTAs running
GPGPU-Sim uArch: core: 12, cta: 0 initialized @(8116,0)
GPGPU-Sim uArch: Shader 2 finished CTA #5 (8159,0), 5 CTAs running
GPGPU-Sim uArch: core:  2, cta: 5 initialized @(8160,0)
GPGPU-Sim uArch: Shader 1 finished CTA #0 (8174,0), 5 CTAs running
GPGPU-Sim uArch: core:  1, cta: 0 initialized @(8175,0)
GPGPU-Sim uArch: Shader 7 finished CTA #0 (8272,0), 5 CTAs running
GPGPU-Sim uArch: core:  7, cta: 0 initialized @(8273,0)
GPGPU-Sim uArch: Shader 1 finished CTA #1 (8273,0), 5 CTAs running
GPGPU-Sim uArch: core:  1, cta: 1 initialized @(8274,0)
GPGPU-Sim uArch: Shader 9 finished CTA #4 (8284,0), 5 CTAs running
GPGPU-Sim uArch: core:  9, cta: 4 initialized @(8285,0)
GPGPU-Sim uArch: Shader 0 finished CTA #5 (8373,0), 5 CTAs running
GPGPU-Sim uArch: core:  0, cta: 5 initialized @(8374,0)
GPGPU-Sim uArch: Shader 2 finished CTA #0 (8390,0), 5 CTAs running
GPGPU-Sim uArch: Shader 5 finished CTA #0 (8390,0), 5 CTAs running
GPGPU-Sim uArch: core:  2, cta: 0 initialized @(8391,0)
GPGPU-Sim uArch: core:  5, cta: 0 initialized @(8391,0)
GPGPU-Sim uArch: Shader 6 finished CTA #3 (8391,0), 5 CTAs running
GPGPU-Sim uArch: core:  6, cta: 3 initialized @(8392,0)
GPGPU-Sim uArch: Shader 3 finished CTA #4 (8392,0), 5 CTAs running
GPGPU-Sim uArch: core:  3, cta: 4 initialized @(8393,0)
GPGPU-Sim uArch: Shader 11 finished CTA #0 (8395,0), 5 CTAs running
GPGPU-Sim uArch: core: 11, cta: 0 initialized @(8396,0)
GPGPU-Sim PTX: 1800000 instructions simulated : ctaid=(9,13,0) tid=(31,0,0)
GPGPU-Sim uArch: Shader 4 finished CTA #4 (8445,0), 5 CTAs running
GPGPU-Sim uArch: core:  4, cta: 4 initialized @(8446,0)
GPGPU-Sim uArch: Shader 13 finished CTA #5 (8457,0), 5 CTAs running
GPGPU-Sim uArch: core: 13, cta: 5 initialized @(8458,0)
GPGPU-Sim uArch: Shader 10 finished CTA #3 (8468,0), 5 CTAs running
GPGPU-Sim uArch: core: 10, cta: 3 initialized @(8469,0)
GPGPU-Sim uArch: cycles simulated: 8500  inst.: 1824640 (ipc=214.7) sim_rate=228080 (inst/sec) elapsed = 0:0:00:08 / Sun Mar 23 01:56:34 2014
GPGPU-Sim uArch: Shader 5 finished CTA #1 (8513,0), 5 CTAs running
GPGPU-Sim uArch: core:  5, cta: 1 initialized @(8514,0)
GPGPU-Sim uArch: Shader 8 finished CTA #4 (8537,0), 5 CTAs running
GPGPU-Sim uArch: core:  8, cta: 4 initialized @(8538,0)
GPGPU-Sim uArch: Shader 6 finished CTA #4 (8613,0), 5 CTAs running
GPGPU-Sim uArch: core:  6, cta: 4 initialized @(8614,0)
GPGPU-Sim uArch: Shader 2 finished CTA #1 (8636,0), 5 CTAs running
GPGPU-Sim uArch: core:  2, cta: 1 initialized @(8637,0)
GPGPU-Sim uArch: Shader 1 finished CTA #2 (8655,0), 5 CTAs running
GPGPU-Sim uArch: core:  1, cta: 2 initialized @(8656,0)
GPGPU-Sim uArch: Shader 11 finished CTA #5 (8729,0), 5 CTAs running
GPGPU-Sim uArch: Shader 13 finished CTA #0 (8729,0), 5 CTAs running
GPGPU-Sim uArch: core: 11, cta: 5 initialized @(8730,0)
GPGPU-Sim uArch: core: 13, cta: 0 initialized @(8730,0)
GPGPU-Sim uArch: Shader 9 finished CTA #5 (8770,0), 5 CTAs running
GPGPU-Sim uArch: core:  9, cta: 5 initialized @(8771,0)
GPGPU-Sim uArch: Shader 8 finished CTA #5 (8779,0), 5 CTAs running
GPGPU-Sim uArch: core:  8, cta: 5 initialized @(8780,0)
GPGPU-Sim uArch: Shader 7 finished CTA #1 (8781,0), 5 CTAs running
GPGPU-Sim uArch: core:  7, cta: 1 initialized @(8782,0)
GPGPU-Sim uArch: Shader 4 finished CTA #3 (8786,0), 5 CTAs running
GPGPU-Sim uArch: core:  4, cta: 3 initialized @(8787,0)
GPGPU-Sim uArch: Shader 10 finished CTA #4 (8800,0), 5 CTAs running
GPGPU-Sim uArch: core: 10, cta: 4 initialized @(8801,0)
GPGPU-Sim uArch: Shader 12 finished CTA #1 (8806,0), 5 CTAs running
GPGPU-Sim uArch: core: 12, cta: 1 initialized @(8807,0)
GPGPU-Sim PTX: 1900000 instructions simulated : ctaid=(19,13,0) tid=(223,0,0)
GPGPU-Sim uArch: Shader 13 finished CTA #1 (8883,0), 5 CTAs running
GPGPU-Sim uArch: core: 13, cta: 1 initialized @(8884,0)
GPGPU-Sim uArch: Shader 6 finished CTA #5 (8893,0), 5 CTAs running
GPGPU-Sim uArch: core:  6, cta: 5 initialized @(8894,0)
GPGPU-Sim uArch: Shader 11 finished CTA #2 (8894,0), 5 CTAs running
GPGPU-Sim uArch: core: 11, cta: 2 initialized @(8895,0)
GPGPU-Sim uArch: Shader 5 finished CTA #2 (8922,0), 5 CTAs running
GPGPU-Sim uArch: core:  5, cta: 2 initialized @(8923,0)
GPGPU-Sim uArch: Shader 2 finished CTA #2 (8941,0), 5 CTAs running
GPGPU-Sim uArch: core:  2, cta: 2 initialized @(8942,0)
GPGPU-Sim uArch: Shader 3 finished CTA #5 (8963,0), 5 CTAs running
GPGPU-Sim uArch: core:  3, cta: 5 initialized @(8964,0)
GPGPU-Sim uArch: Shader 11 finished CTA #1 (9071,0), 5 CTAs running
GPGPU-Sim uArch: core: 11, cta: 1 initialized @(9072,0)
GPGPU-Sim uArch: Shader 1 finished CTA #3 (9084,0), 5 CTAs running
GPGPU-Sim uArch: core:  1, cta: 3 initialized @(9085,0)
GPGPU-Sim uArch: Shader 13 finished CTA #2 (9113,0), 5 CTAs running
GPGPU-Sim uArch: core: 13, cta: 2 initialized @(9114,0)
GPGPU-Sim uArch: Shader 10 finished CTA #5 (9117,0), 5 CTAs running
GPGPU-Sim uArch: core: 10, cta: 5 initialized @(9118,0)
GPGPU-Sim uArch: Shader 11 finished CTA #3 (9121,0), 5 CTAs running
GPGPU-Sim uArch: core: 11, cta: 3 initialized @(9122,0)
GPGPU-Sim uArch: Shader 13 finished CTA #3 (9130,0), 5 CTAs running
GPGPU-Sim uArch: core: 13, cta: 3 initialized @(9131,0)
GPGPU-Sim uArch: Shader 5 finished CTA #4 (9182,0), 5 CTAs running
GPGPU-Sim uArch: core:  5, cta: 4 initialized @(9183,0)
GPGPU-Sim uArch: Shader 10 finished CTA #0 (9225,0), 5 CTAs running
GPGPU-Sim uArch: core: 10, cta: 0 initialized @(9226,0)
GPGPU-Sim uArch: Shader 12 finished CTA #2 (9231,0), 5 CTAs running
GPGPU-Sim uArch: core: 12, cta: 2 initialized @(9232,0)
GPGPU-Sim uArch: Shader 8 finished CTA #1 (9233,0), 5 CTAs running
GPGPU-Sim uArch: core:  8, cta: 1 initialized @(9234,0)
GPGPU-Sim uArch: Shader 6 finished CTA #0 (9241,0), 5 CTAs running
GPGPU-Sim uArch: core:  6, cta: 0 initialized @(9242,0)
GPGPU-Sim uArch: Shader 13 finished CTA #4 (9244,0), 5 CTAs running
GPGPU-Sim uArch: core: 13, cta: 4 initialized @(9245,0)
GPGPU-Sim PTX: 2000000 instructions simulated : ctaid=(15,14,0) tid=(31,0,0)
GPGPU-Sim uArch: Shader 4 finished CTA #5 (9259,0), 5 CTAs running
GPGPU-Sim uArch: core:  4, cta: 5 initialized @(9260,0)
GPGPU-Sim uArch: Shader 8 finished CTA #0 (9313,0), 5 CTAs running
GPGPU-Sim uArch: core:  8, cta: 0 initialized @(9314,0)
GPGPU-Sim uArch: Shader 0 finished CTA #0 (9359,0), 5 CTAs running
GPGPU-Sim uArch: core:  0, cta: 0 initialized @(9360,0)
GPGPU-Sim uArch: Shader 9 finished CTA #0 (9375,0), 5 CTAs running
GPGPU-Sim uArch: core:  9, cta: 0 initialized @(9376,0)
GPGPU-Sim uArch: Shader 13 finished CTA #5 (9414,0), 5 CTAs running
GPGPU-Sim uArch: core: 13, cta: 5 initialized @(9415,0)
GPGPU-Sim uArch: Shader 6 finished CTA #1 (9416,0), 5 CTAs running
GPGPU-Sim uArch: core:  6, cta: 1 initialized @(9417,0)
GPGPU-Sim uArch: Shader 5 finished CTA #3 (9433,0), 5 CTAs running
GPGPU-Sim uArch: core:  5, cta: 3 initialized @(9434,0)
GPGPU-Sim uArch: Shader 3 finished CTA #1 (9481,0), 5 CTAs running
GPGPU-Sim uArch: core:  3, cta: 1 initialized @(9482,0)
GPGPU-Sim uArch: Shader 1 finished CTA #4 (9482,0), 5 CTAs running
GPGPU-Sim uArch: core:  1, cta: 4 initialized @(9483,0)
GPGPU-Sim uArch: Shader 11 finished CTA #4 (9483,0), 5 CTAs running
GPGPU-Sim uArch: core: 11, cta: 4 initialized @(9484,0)
GPGPU-Sim uArch: cycles simulated: 9500  inst.: 2052384 (ipc=216.0) sim_rate=228042 (inst/sec) elapsed = 0:0:00:09 / Sun Mar 23 01:56:35 2014
GPGPU-Sim uArch: Shader 4 finished CTA #0 (9522,0), 5 CTAs running
GPGPU-Sim uArch: core:  4, cta: 0 initialized @(9523,0)
GPGPU-Sim uArch: Shader 12 finished CTA #3 (9529,0), 5 CTAs running
GPGPU-Sim uArch: core: 12, cta: 3 initialized @(9530,0)
GPGPU-Sim uArch: Shader 12 finished CTA #4 (9568,0), 5 CTAs running
GPGPU-Sim uArch: core: 12, cta: 4 initialized @(9569,0)
GPGPU-Sim uArch: Shader 2 finished CTA #3 (9630,0), 5 CTAs running
GPGPU-Sim uArch: core:  2, cta: 3 initialized @(9631,0)
GPGPU-Sim uArch: Shader 0 finished CTA #1 (9639,0), 5 CTAs running
GPGPU-Sim uArch: core:  0, cta: 1 initialized @(9640,0)
GPGPU-Sim PTX: 2100000 instructions simulated : ctaid=(12,13,0) tid=(255,0,0)
GPGPU-Sim uArch: Shader 8 finished CTA #2 (9721,0), 5 CTAs running
GPGPU-Sim uArch: core:  8, cta: 2 initialized @(9722,0)
GPGPU-Sim uArch: Shader 6 finished CTA #2 (9768,0), 5 CTAs running
GPGPU-Sim uArch: core:  6, cta: 2 initialized @(9769,0)
GPGPU-Sim uArch: Shader 3 finished CTA #2 (9787,0), 5 CTAs running
GPGPU-Sim uArch: core:  3, cta: 2 initialized @(9788,0)
GPGPU-Sim uArch: Shader 6 finished CTA #3 (9827,0), 5 CTAs running
GPGPU-Sim uArch: core:  6, cta: 3 initialized @(9828,0)
GPGPU-Sim uArch: Shader 7 finished CTA #2 (9833,0), 5 CTAs running
GPGPU-Sim uArch: core:  7, cta: 2 initialized @(9834,0)
GPGPU-Sim uArch: Shader 1 finished CTA #5 (9883,0), 5 CTAs running
GPGPU-Sim uArch: core:  1, cta: 5 initialized @(9884,0)
GPGPU-Sim uArch: Shader 10 finished CTA #1 (9890,0), 5 CTAs running
GPGPU-Sim uArch: core: 10, cta: 1 initialized @(9891,0)
GPGPU-Sim uArch: Shader 3 finished CTA #0 (9941,0), 5 CTAs running
GPGPU-Sim uArch: core:  3, cta: 0 initialized @(9942,0)
GPGPU-Sim uArch: Shader 11 finished CTA #0 (9945,0), 5 CTAs running
GPGPU-Sim uArch: core: 11, cta: 0 initialized @(9946,0)
GPGPU-Sim uArch: Shader 12 finished CTA #5 (9956,0), 5 CTAs running
GPGPU-Sim uArch: core: 12, cta: 5 initialized @(9957,0)
GPGPU-Sim uArch: Shader 4 finished CTA #1 (9972,0), 5 CTAs running
GPGPU-Sim uArch: core:  4, cta: 1 initialized @(9973,0)
GPGPU-Sim uArch: Shader 2 finished CTA #4 (10002,0), 5 CTAs running
GPGPU-Sim uArch: core:  2, cta: 4 initialized @(10003,0)
GPGPU-Sim uArch: Shader 0 finished CTA #2 (10011,0), 5 CTAs running
GPGPU-Sim uArch: core:  0, cta: 2 initialized @(10012,0)
GPGPU-Sim uArch: Shader 3 finished CTA #3 (10062,0), 5 CTAs running
GPGPU-Sim uArch: core:  3, cta: 3 initialized @(10063,0)
GPGPU-Sim uArch: Shader 3 finished CTA #4 (10071,0), 5 CTAs running
GPGPU-Sim uArch: core:  3, cta: 4 initialized @(10072,0)
GPGPU-Sim uArch: Shader 12 finished CTA #0 (10089,0), 5 CTAs running
GPGPU-Sim uArch: core: 12, cta: 0 initialized @(10090,0)
GPGPU-Sim uArch: Shader 9 finished CTA #1 (10099,0), 5 CTAs running
GPGPU-Sim uArch: core:  9, cta: 1 initialized @(10100,0)
GPGPU-Sim uArch: Shader 0 finished CTA #3 (10152,0), 5 CTAs running
GPGPU-Sim uArch: core:  0, cta: 3 initialized @(10153,0)
GPGPU-Sim uArch: Shader 13 finished CTA #0 (10167,0), 5 CTAs running
GPGPU-Sim uArch: core: 13, cta: 0 initialized @(10168,0)
GPGPU-Sim PTX: 2200000 instructions simulated : ctaid=(1,16,0) tid=(127,0,0)
GPGPU-Sim uArch: Shader 1 finished CTA #0 (10202,0), 5 CTAs running
GPGPU-Sim uArch: core:  1, cta: 0 initialized @(10203,0)
GPGPU-Sim uArch: Shader 3 finished CTA #5 (10219,0), 5 CTAs running
GPGPU-Sim uArch: core:  3, cta: 5 initialized @(10220,0)
GPGPU-Sim uArch: Shader 8 finished CTA #3 (10240,0), 5 CTAs running
GPGPU-Sim uArch: core:  8, cta: 3 initialized @(10241,0)
GPGPU-Sim uArch: Shader 1 finished CTA #1 (10272,0), 5 CTAs running
GPGPU-Sim uArch: core:  1, cta: 1 initialized @(10273,0)
GPGPU-Sim uArch: Shader 2 finished CTA #5 (10306,0), 5 CTAs running
GPGPU-Sim uArch: core:  2, cta: 5 initialized @(10307,0)
GPGPU-Sim uArch: Shader 5 finished CTA #5 (10313,0), 5 CTAs running
GPGPU-Sim uArch: core:  5, cta: 5 initialized @(10314,0)
GPGPU-Sim uArch: Shader 11 finished CTA #5 (10409,0), 5 CTAs running
GPGPU-Sim uArch: core: 11, cta: 5 initialized @(10410,0)
GPGPU-Sim uArch: Shader 8 finished CTA #4 (10412,0), 5 CTAs running
GPGPU-Sim uArch: core:  8, cta: 4 initialized @(10413,0)
GPGPU-Sim uArch: Shader 0 finished CTA #4 (10414,0), 5 CTAs running
[...]
GPGPU-Sim PTX: 12400000 instructions simulated : ctaid=(23,5,0) tid=(227,0,0)
GPGPU-Sim uArch: cycles simulated: 37899  inst.: 12066185 (ipc=409.1) sim_rate=219385 (inst/sec) elapsed = 0:0:00:55 / Sun Mar 23 01:57:21 2014
GPGPU-Sim PTX: 12500000 instructions simulated : ctaid=(9,4,0) tid=(132,0,0)
GPGPU-Sim uArch: Shader 12 finished CTA #2 (21090,16899), 5 CTAs running
GPGPU-Sim uArch: core: 12, cta: 2 initialized @(21091,16899)
GPGPU-Sim PTX: 12600000 instructions simulated : ctaid=(10,6,0) tid=(44,0,0)
GPGPU-Sim uArch: Shader 12 finished CTA #1 (21388,16899), 5 CTAs running
GPGPU-Sim uArch: core: 12, cta: 1 initialized @(21389,16899)
GPGPU-Sim uArch: cycles simulated: 38399  inst.: 12267470 (ipc=408.9) sim_rate=219061 (inst/sec) elapsed = 0:0:00:56 / Sun Mar 23 01:57:22 2014
GPGPU-Sim PTX: 12700000 instructions simulated : ctaid=(9,4,0) tid=(90,0,0)
GPGPU-Sim uArch: Shader 4 finished CTA #0 (21744,16899), 5 CTAs running
GPGPU-Sim uArch: core:  4, cta: 0 initialized @(21745,16899)
GPGPU-Sim PTX: 12800000 instructions simulated : ctaid=(0,6,0) tid=(205,0,0)
GPGPU-Sim uArch: Shader 3 finished CTA #0 (21844,16899), 5 CTAs running
GPGPU-Sim uArch: core:  3, cta: 0 initialized @(21845,16899)
GPGPU-Sim uArch: Shader 3 finished CTA #2 (21960,16899), 5 CTAs running
GPGPU-Sim uArch: core:  3, cta: 2 initialized @(21961,16899)
GPGPU-Sim uArch: cycles simulated: 38899  inst.: 12447660 (ipc=407.8) sim_rate=218380 (inst/sec) elapsed = 0:0:00:57 / Sun Mar 23 01:57:23 2014
GPGPU-Sim PTX: 12900000 instructions simulated : ctaid=(22,6,0) tid=(47,0,0)
GPGPU-Sim uArch: Shader 4 finished CTA #2 (22092,16899), 5 CTAs running
GPGPU-Sim uArch: core:  4, cta: 2 initialized @(22093,16899)
GPGPU-Sim uArch: Shader 12 finished CTA #3 (22203,16899), 5 CTAs running
GPGPU-Sim uArch: core: 12, cta: 3 initialized @(22204,16899)
GPGPU-Sim uArch: Shader 4 finished CTA #1 (22256,16899), 5 CTAs running
GPGPU-Sim uArch: core:  4, cta: 1 initialized @(22257,16899)
GPGPU-Sim PTX: 13000000 instructions simulated : ctaid=(15,5,0) tid=(87,0,0)
GPGPU-Sim uArch: Shader 13 finished CTA #3 (22434,16899), 5 CTAs running
GPGPU-Sim uArch: core: 13, cta: 3 initialized @(22435,16899)
GPGPU-Sim uArch: cycles simulated: 39399  inst.: 12630906 (ipc=406.9) sim_rate=217774 (inst/sec) elapsed = 0:0:00:58 / Sun Mar 23 01:57:24 2014
GPGPU-Sim PTX: 13100000 instructions simulated : ctaid=(5,6,0) tid=(215,0,0)
GPGPU-Sim uArch: Shader 2 finished CTA #0 (22602,16899), 5 CTAs running
GPGPU-Sim uArch: core:  2, cta: 0 initialized @(22603,16899)
GPGPU-Sim uArch: Shader 13 finished CTA #2 (22640,16899), 5 CTAs running
GPGPU-Sim uArch: core: 13, cta: 2 initialized @(22641,16899)
GPGPU-Sim uArch: Shader 3 finished CTA #3 (22689,16899), 5 CTAs running
GPGPU-Sim uArch: core:  3, cta: 3 initialized @(22690,16899)
GPGPU-Sim PTX: 13200000 instructions simulated : ctaid=(6,6,0) tid=(87,0,0)
GPGPU-Sim uArch: Shader 2 finished CTA #2 (22977,16899), 5 CTAs running
GPGPU-Sim uArch: core:  2, cta: 2 initialized @(22978,16899)
GPGPU-Sim uArch: cycles simulated: 39899  inst.: 12786810 (ipc=404.9) sim_rate=216725 (inst/sec) elapsed = 0:0:00:59 / Sun Mar 23 01:57:25 2014
GPGPU-Sim uArch: Shader 2 finished CTA #1 (23019,16899), 5 CTAs running
GPGPU-Sim uArch: core:  2, cta: 1 initialized @(23020,16899)
GPGPU-Sim PTX: 13300000 instructions simulated : ctaid=(10,7,0) tid=(206,0,0)
GPGPU-Sim uArch: Shader 11 finished CTA #0 (23249,16899), 5 CTAs running
GPGPU-Sim uArch: core: 11, cta: 0 initialized @(23250,16899)
GPGPU-Sim uArch: Shader 13 finished CTA #4 (23251,16899), 5 CTAs running
GPGPU-Sim uArch: core: 13, cta: 4 initialized @(23252,16899)
GPGPU-Sim uArch: Shader 12 finished CTA #4 (23418,16899), 5 CTAs running
GPGPU-Sim uArch: core: 12, cta: 4 initialized @(23419,16899)
GPGPU-Sim uArch: cycles simulated: 40399  inst.: 12931954 (ipc=402.4) sim_rate=215532 (inst/sec) elapsed = 0:0:01:00 / Sun Mar 23 01:57:26 2014
GPGPU-Sim uArch: Shader 4 finished CTA #3 (23513,16899), 5 CTAs running
GPGPU-Sim uArch: core:  4, cta: 3 initialized @(23514,16899)
GPGPU-Sim PTX: 13400000 instructions simulated : ctaid=(4,7,0) tid=(118,0,0)
GPGPU-Sim uArch: Shader 6 finished CTA #0 (23626,16899), 5 CTAs running
GPGPU-Sim uArch: core:  6, cta: 0 initialized @(23627,16899)
GPGPU-Sim uArch: Shader 1 finished CTA #1 (23648,16899), 5 CTAs running
GPGPU-Sim uArch: core:  1, cta: 1 initialized @(23649,16899)
GPGPU-Sim uArch: Shader 11 finished CTA #1 (23714,16899), 5 CTAs running
GPGPU-Sim uArch: core: 11, cta: 1 initialized @(23715,16899)
GPGPU-Sim uArch: Shader 0 finished CTA #0 (23719,16899), 5 CTAs running
GPGPU-Sim uArch: core:  0, cta: 0 initialized @(23720,16899)
GPGPU-Sim PTX: 13500000 instructions simulated : ctaid=(5,5,0) tid=(92,0,0)
GPGPU-Sim uArch: Shader 11 finished CTA #3 (23891,16899), 5 CTAs running
GPGPU-Sim uArch: core: 11, cta: 3 initialized @(23892,16899)
GPGPU-Sim uArch: Shader 0 finished CTA #1 (23979,16899), 5 CTAs running
GPGPU-Sim uArch: core:  0, cta: 1 initialized @(23980,16899)
GPGPU-Sim uArch: Shader 11 finished CTA #2 (23980,16899), 5 CTAs running
GPGPU-Sim uArch: core: 11, cta: 2 initialized @(23981,16899)
GPGPU-Sim uArch: cycles simulated: 40899  inst.: 13078062 (ipc=400.1) sim_rate=214394 (inst/sec) elapsed = 0:0:01:01 / Sun Mar 23 01:57:27 2014
GPGPU-Sim uArch: Shader 1 finished CTA #0 (24085,16899), 5 CTAs running
GPGPU-Sim uArch: core:  1, cta: 0 initialized @(24086,16899)
GPGPU-Sim uArch: Shader 1 finished CTA #2 (24121,16899), 5 CTAs running
GPGPU-Sim uArch: core:  1, cta: 2 initialized @(24122,16899)
GPGPU-Sim uArch: Shader 6 finished CTA #1 (24144,16899), 5 CTAs running
GPGPU-Sim uArch: core:  6, cta: 1 initialized @(24145,16899)
GPGPU-Sim PTX: 13600000 instructions simulated : ctaid=(23,6,0) tid=(168,0,0)
GPGPU-Sim uArch: Shader 2 finished CTA #3 (24200,16899), 5 CTAs running
GPGPU-Sim uArch: core:  2, cta: 3 initialized @(24201,16899)
GPGPU-Sim uArch: Shader 3 finished CTA #4 (24254,16899), 5 CTAs running
GPGPU-Sim uArch: core:  3, cta: 4 initialized @(24255,16899)
GPGPU-Sim PTX: 13700000 instructions simulated : ctaid=(6,7,0) tid=(197,0,0)
GPGPU-Sim uArch: Shader 1 finished CTA #3 (24495,16899), 5 CTAs running
GPGPU-Sim uArch: core:  1, cta: 3 initialized @(24496,16899)
GPGPU-Sim uArch: cycles simulated: 41399  inst.: 13261401 (ipc=399.4) sim_rate=213893 (inst/sec) elapsed = 0:0:01:02 / Sun Mar 23 01:57:28 2014
GPGPU-Sim uArch: Shader 7 finished CTA #0 (24573,16899), 5 CTAs running
GPGPU-Sim uArch: core:  7, cta: 0 initialized @(24574,16899)
GPGPU-Sim PTX: 13800000 instructions simulated : ctaid=(22,7,0) tid=(220,0,0)
GPGPU-Sim uArch: Shader 13 finished CTA #5 (24828,16899), 5 CTAs running
GPGPU-Sim uArch: core: 13, cta: 5 initialized @(24829,16899)
GPGPU-Sim uArch: Shader 8 finished CTA #0 (24858,16899), 5 CTAs running
GPGPU-Sim uArch: core:  8, cta: 0 initialized @(24859,16899)
GPGPU-Sim uArch: Shader 5 finished CTA #0 (24893,16899), 5 CTAs running
GPGPU-Sim uArch: core:  5, cta: 0 initialized @(24894,16899)
GPGPU-Sim uArch: Shader 10 finished CTA #0 (24967,16899), 5 CTAs running
GPGPU-Sim uArch: core: 10, cta: 0 initialized @(24968,16899)
GPGPU-Sim PTX: 13900000 instructions simulated : ctaid=(1,7,0) tid=(169,0,0)
GPGPU-Sim uArch: Shader 8 finished CTA #1 (24988,16899), 5 CTAs running
GPGPU-Sim uArch: core:  8, cta: 1 initialized @(24989,16899)
GPGPU-Sim uArch: cycles simulated: 41899  inst.: 13432145 (ipc=398.3) sim_rate=213208 (inst/sec) elapsed = 0:0:01:03 / Sun Mar 23 01:57:29 2014
GPGPU-Sim uArch: Shader 11 finished CTA #5 (25013,16899), 5 CTAs running
GPGPU-Sim uArch: core: 11, cta: 5 initialized @(25014,16899)
GPGPU-Sim uArch: Shader 7 finished CTA #1 (25100,16899), 5 CTAs running
GPGPU-Sim uArch: Shader 7 finished CTA #2 (25100,16899), 4 CTAs running
GPGPU-Sim uArch: core:  7, cta: 1 initialized @(25101,16899)
GPGPU-Sim uArch: core:  7, cta: 2 initialized @(25102,16899)
GPGPU-Sim PTX: 14000000 instructions simulated : ctaid=(18,7,0) tid=(252,0,0)
GPGPU-Sim uArch: Shader 0 finished CTA #2 (25195,16899), 5 CTAs running
GPGPU-Sim uArch: core:  0, cta: 2 initialized @(25196,16899)
GPGPU-Sim uArch: Shader 4 finished CTA #4 (25295,16899), 5 CTAs running
GPGPU-Sim uArch: core:  4, cta: 4 initialized @(25296,16899)
GPGPU-Sim uArch: Shader 12 finished CTA #5 (25345,16899), 5 CTAs running
GPGPU-Sim uArch: core: 12, cta: 5 initialized @(25346,16899)
GPGPU-Sim uArch: Shader 2 finished CTA #4 (25354,16899), 5 CTAs running
GPGPU-Sim uArch: core:  2, cta: 4 initialized @(25355,16899)
GPGPU-Sim PTX: 14100000 instructions simulated : ctaid=(12,8,0) tid=(218,0,0)
GPGPU-Sim uArch: cycles simulated: 42399  inst.: 13678794 (ipc=400.1) sim_rate=213731 (inst/sec) elapsed = 0:0:01:04 / Sun Mar 23 01:57:30 2014
GPGPU-Sim uArch: Shader 9 finished CTA #1 (25527,16899), 5 CTAs running
GPGPU-Sim uArch: core:  9, cta: 1 initialized @(25528,16899)
GPGPU-Sim uArch: Shader 0 finished CTA #4 (25545,16899), 5 CTAs running
GPGPU-Sim uArch: core:  0, cta: 4 initialized @(25546,16899)
GPGPU-Sim PTX: 14200000 instructions simulated : ctaid=(8,8,0) tid=(241,0,0)
GPGPU-Sim uArch: Shader 9 finished CTA #0 (25705,16899), 5 CTAs running
GPGPU-Sim uArch: core:  9, cta: 0 initialized @(25706,16899)
GPGPU-Sim uArch: Shader 10 finished CTA #1 (25707,16899), 5 CTAs running
GPGPU-Sim uArch: core: 10, cta: 1 initialized @(25708,16899)
GPGPU-Sim uArch: Shader 13 finished CTA #0 (25735,16899), 5 CTAs running
GPGPU-Sim uArch: core: 13, cta: 0 initialized @(25736,16899)
GPGPU-Sim uArch: Shader 3 finished CTA #5 (25751,16899), 5 CTAs running
GPGPU-Sim uArch: core:  3, cta: 5 initialized @(25752,16899)
GPGPU-Sim uArch: Shader 5 finished CTA #1 (25769,16899), 5 CTAs running
GPGPU-Sim uArch: core:  5, cta: 1 initialized @(25770,16899)
GPGPU-Sim PTX: 14300000 instructions simulated : ctaid=(3,8,0) tid=(20,0,0)
GPGPU-Sim uArch: Shader 0 finished CTA #3 (25849,16899), 5 CTAs running
GPGPU-Sim uArch: core:  0, cta: 3 initialized @(25850,16899)
GPGPU-Sim uArch: Shader 8 finished CTA #3 (25958,16899), 5 CTAs running
GPGPU-Sim uArch: core:  8, cta: 3 initialized @(25959,16899)
GPGPU-Sim uArch: cycles simulated: 42899  inst.: 13887811 (ipc=400.5) sim_rate=213658 (inst/sec) elapsed = 0:0:01:05 / Sun Mar 23 01:57:31 2014
GPGPU-Sim uArch: Shader 6 finished CTA #2 (26023,16899), 5 CTAs running
GPGPU-Sim uArch: core:  6, cta: 2 initialized @(26024,16899)
GPGPU-Sim PTX: 14400000 instructions simulated : ctaid=(14,6,0) tid=(232,0,0)
GPGPU-Sim uArch: Shader 8 finished CTA #2 (26139,16899), 5 CTAs running
GPGPU-Sim uArch: core:  8, cta: 2 initialized @(26140,16899)
GPGPU-Sim uArch: Shader 9 finished CTA #2 (26141,16899), 5 CTAs running
GPGPU-Sim uArch: core:  9, cta: 2 initialized @(26142,16899)
GPGPU-Sim PTX: 14500000 instructions simulated : ctaid=(18,7,0) tid=(214,0,0)
GPGPU-Sim uArch: Shader 5 finished CTA #2 (26383,16899), 5 CTAs running
GPGPU-Sim uArch: core:  5, cta: 2 initialized @(26384,16899)
GPGPU-Sim PTX: 14600000 instructions simulated : ctaid=(19,7,0) tid=(123,0,0)
GPGPU-Sim uArch: Shader 11 finished CTA #4 (26435,16899), 5 CTAs running
GPGPU-Sim uArch: core: 11, cta: 4 initialized @(26436,16899)
GPGPU-Sim uArch: cycles simulated: 43399  inst.: 14136647 (ipc=402.3) sim_rate=210994 (inst/sec) elapsed = 0:0:01:07 / Sun Mar 23 01:57:33 2014
GPGPU-Sim PTX: 14700000 instructions simulated : ctaid=(9,7,0) tid=(236,0,0)
GPGPU-Sim uArch: Shader 12 finished CTA #0 (26667,16899), 5 CTAs running
GPGPU-Sim uArch: core: 12, cta: 0 initialized @(26668,16899)
GPGPU-Sim uArch: Shader 6 finished CTA #3 (26705,16899), 5 CTAs running
GPGPU-Sim uArch: core:  6, cta: 3 initialized @(26706,16899)
GPGPU-Sim uArch: Shader 8 finished CTA #4 (26770,16899), 5 CTAs running
GPGPU-Sim uArch: core:  8, cta: 4 initialized @(26771,16899)
GPGPU-Sim PTX: 14800000 instructions simulated : ctaid=(20,7,0) tid=(6,0,0)
GPGPU-Sim uArch: Shader 9 finished CTA #3 (26874,16899), 5 CTAs running
GPGPU-Sim uArch: core:  9, cta: 3 initialized @(26875,16899)
GPGPU-Sim uArch: Shader 10 finished CTA #2 (26887,16899), 5 CTAs running
GPGPU-Sim uArch: core: 10, cta: 2 initialized @(26888,16899)
GPGPU-Sim uArch: Shader 7 finished CTA #3 (26985,16899), 5 CTAs running
GPGPU-Sim uArch: core:  7, cta: 3 initialized @(26986,16899)
GPGPU-Sim uArch: cycles simulated: 43899  inst.: 14382573 (ipc=404.0) sim_rate=211508 (inst/sec) elapsed = 0:0:01:08 / Sun Mar 23 01:57:34 2014
GPGPU-Sim PTX: 14900000 instructions simulated : ctaid=(9,9,0) tid=(105,0,0)
GPGPU-Sim uArch: Shader 2 finished CTA #5 (27147,16899), 5 CTAs running
GPGPU-Sim uArch: core:  2, cta: 5 initialized @(27148,16899)
GPGPU-Sim PTX: 15000000 instructions simulated : ctaid=(21,7,0) tid=(79,0,0)
GPGPU-Sim uArch: Shader 5 finished CTA #3 (27266,16899), 5 CTAs running
GPGPU-Sim uArch: core:  5, cta: 3 initialized @(27267,16899)
GPGPU-Sim uArch: Shader 10 finished CTA #3 (27327,16899), 5 CTAs running
GPGPU-Sim uArch: core: 10, cta: 3 initialized @(27328,16899)
GPGPU-Sim uArch: cycles simulated: 44399  inst.: 14570847 (ipc=403.5) sim_rate=211171 (inst/sec) elapsed = 0:0:01:09 / Sun Mar 23 01:57:35 2014
GPGPU-Sim PTX: 15100000 instructions simulated : ctaid=(10,8,0) tid=(40,0,0)
GPGPU-Sim uArch: Shader 12 finished CTA #2 (27703,16899), 5 CTAs running
GPGPU-Sim uArch: core: 12, cta: 2 initialized @(27704,16899)
GPGPU-Sim PTX: 15200000 instructions simulated : ctaid=(20,7,0) tid=(242,0,0)
GPGPU-Sim uArch: Shader 1 finished CTA #4 (27867,16899), 5 CTAs running
GPGPU-Sim uArch: core:  1, cta: 4 initialized @(27868,16899)
GPGPU-Sim uArch: Shader 13 finished CTA #1 (27871,16899), 5 CTAs running
GPGPU-Sim uArch: core: 13, cta: 1 initialized @(27872,16899)
GPGPU-Sim PTX: 15300000 instructions simulated : ctaid=(10,9,0) tid=(69,0,0)
GPGPU-Sim uArch: Shader 4 finished CTA #5 (27955,16899), 5 CTAs running
GPGPU-Sim uArch: core:  4, cta: 5 initialized @(27956,16899)
GPGPU-Sim uArch: cycles simulated: 44899  inst.: 14806898 (ipc=404.7) sim_rate=211527 (inst/sec) elapsed = 0:0:01:10 / Sun Mar 23 01:57:36 2014
GPGPU-Sim uArch: Shader 6 finished CTA #4 (28047,16899), 5 CTAs running
GPGPU-Sim uArch: core:  6, cta: 4 initialized @(28048,16899)
GPGPU-Sim PTX: 15400000 instructions simulated : ctaid=(17,8,0) tid=(82,0,0)
GPGPU-Sim PTX: 15500000 instructions simulated : ctaid=(6,7,0) tid=(255,0,0)
GPGPU-Sim PTX: 15600000 instructions simulated : ctaid=(16,7,0) tid=(228,0,0)
GPGPU-Sim uArch: cycles simulated: 45399  inst.: 15077645 (ipc=407.1) sim_rate=212361 (inst/sec) elapsed = 0:0:01:11 / Sun Mar 23 01:57:37 2014
GPGPU-Sim PTX: 15700000 instructions simulated : ctaid=(19,8,0) tid=(218,0,0)
GPGPU-Sim uArch: Shader 9 finished CTA #4 (28775,16899), 5 CTAs running
GPGPU-Sim uArch: core:  9, cta: 4 initialized @(28776,16899)
GPGPU-Sim PTX: 15800000 instructions simulated : ctaid=(18,9,0) tid=(32,0,0)
GPGPU-Sim PTX: 15900000 instructions simulated : ctaid=(19,7,0) tid=(161,0,0)
GPGPU-Sim uArch: cycles simulated: 45899  inst.: 15340028 (ipc=409.1) sim_rate=213055 (inst/sec) elapsed = 0:0:01:12 / Sun Mar 23 01:57:38 2014
GPGPU-Sim uArch: Shader 0 finished CTA #5 (29140,16899), 5 CTAs running
GPGPU-Sim uArch: core:  0, cta: 5 initialized @(29141,16899)
GPGPU-Sim PTX: 16000000 instructions simulated : ctaid=(16,8,0) tid=(152,0,0)
GPGPU-Sim uArch: Shader 5 finished CTA #4 (29339,16899), 5 CTAs running
GPGPU-Sim uArch: core:  5, cta: 4 initialized @(29340,16899)
GPGPU-Sim PTX: 16100000 instructions simulated : ctaid=(24,8,0) tid=(73,0,0)
GPGPU-Sim uArch: cycles simulated: 46399  inst.: 15597735 (ipc=410.9) sim_rate=210780 (inst/sec) elapsed = 0:0:01:14 / Sun Mar 23 01:57:40 2014
GPGPU-Sim uArch: Shader 7 finished CTA #4 (29525,16899), 5 CTAs running
GPGPU-Sim uArch: core:  7, cta: 4 initialized @(29526,16899)
GPGPU-Sim PTX: 16200000 instructions simulated : ctaid=(21,9,0) tid=(96,0,0)
GPGPU-Sim uArch: Shader 10 finished CTA #4 (29581,16899), 5 CTAs running
GPGPU-Sim uArch: core: 10, cta: 4 initialized @(29582,16899)
GPGPU-Sim uArch: Shader 1 finished CTA #5 (29638,16899), 5 CTAs running
GPGPU-Sim uArch: core:  1, cta: 5 initialized @(29639,16899)
GPGPU-Sim PTX: 16300000 instructions simulated : ctaid=(12,7,0) tid=(109,0,0)
GPGPU-Sim PTX: 16400000 instructions simulated : ctaid=(20,8,0) tid=(128,0,0)
GPGPU-Sim uArch: cycles simulated: 46899  inst.: 15838240 (ipc=412.1) sim_rate=211176 (inst/sec) elapsed = 0:0:01:15 / Sun Mar 23 01:57:41 2014
GPGPU-Sim PTX: 16500000 instructions simulated : ctaid=(13,9,0) tid=(106,0,0)
GPGPU-Sim uArch: Shader 3 finished CTA #1 (30208,16899), 5 CTAs running
GPGPU-Sim uArch: core:  3, cta: 1 initialized @(30209,16899)
GPGPU-Sim PTX: 16600000 instructions simulated : ctaid=(14,6,0) tid=(164,0,0)
GPGPU-Sim uArch: Shader 12 finished CTA #1 (30378,16899), 5 CTAs running
GPGPU-Sim uArch: core: 12, cta: 1 initialized @(30379,16899)
GPGPU-Sim uArch: cycles simulated: 47399  inst.: 16077203 (ipc=413.2) sim_rate=211542 (inst/sec) elapsed = 0:0:01:16 / Sun Mar 23 01:57:42 2014
GPGPU-Sim PTX: 16700000 instructions simulated : ctaid=(12,8,0) tid=(58,0,0)
GPGPU-Sim uArch: Shader 8 finished CTA #5 (30578,16899), 5 CTAs running
GPGPU-Sim uArch: core:  8, cta: 5 initialized @(30579,16899)
GPGPU-Sim PTX: 16800000 instructions simulated : ctaid=(23,9,0) tid=(241,0,0)
GPGPU-Sim PTX: 16900000 instructions simulated : ctaid=(8,8,0) tid=(238,0,0)
GPGPU-Sim uArch: cycles simulated: 47899  inst.: 16301047 (ipc=413.7) sim_rate=211701 (inst/sec) elapsed = 0:0:01:17 / Sun Mar 23 01:57:43 2014
GPGPU-Sim uArch: Shader 6 finished CTA #5 (31168,16899), 5 CTAs running
GPGPU-Sim uArch: core:  6, cta: 5 initialized @(31169,16899)
GPGPU-Sim PTX: 17000000 instructions simulated : ctaid=(13,9,0) tid=(174,0,0)
GPGPU-Sim uArch: Shader 3 finished CTA #0 (31261,16899), 5 CTAs running
GPGPU-Sim uArch: core:  3, cta: 0 initialized @(31262,16899)
GPGPU-Sim uArch: Shader 4 finished CTA #0 (31264,16899), 5 CTAs running
GPGPU-Sim uArch: core:  4, cta: 0 initialized @(31265,16899)
GPGPU-Sim PTX: 17100000 instructions simulated : ctaid=(21,9,0) tid=(229,0,0)
GPGPU-Sim uArch: cycles simulated: 48399  inst.: 16493122 (ipc=413.3) sim_rate=211450 (inst/sec) elapsed = 0:0:01:18 / Sun Mar 23 01:57:44 2014
GPGPU-Sim PTX: 17200000 instructions simulated : ctaid=(9,9,0) tid=(93,0,0)
GPGPU-Sim PTX: 17300000 instructions simulated : ctaid=(6,8,0) tid=(121,0,0)
GPGPU-Sim uArch: cycles simulated: 48899  inst.: 16681449 (ipc=412.7) sim_rate=211157 (inst/sec) elapsed = 0:0:01:19 / Sun Mar 23 01:57:45 2014
GPGPU-Sim uArch: Shader 13 finished CTA #3 (32017,16899), 5 CTAs running
GPGPU-Sim uArch: core: 13, cta: 3 initialized @(32018,16899)
GPGPU-Sim uArch: Shader 4 finished CTA #2 (32025,16899), 5 CTAs running
GPGPU-Sim uArch: core:  4, cta: 2 initialized @(32026,16899)
GPGPU-Sim PTX: 17400000 instructions simulated : ctaid=(6,8,0) tid=(46,0,0)
GPGPU-Sim uArch: Shader 2 finished CTA #0 (32216,16899), 5 CTAs running
GPGPU-Sim uArch: core:  2, cta: 0 initialized @(32217,16899)
GPGPU-Sim uArch: Shader 3 finished CTA #2 (32348,16899), 5 CTAs running
GPGPU-Sim uArch: core:  3, cta: 2 initialized @(32349,16899)
GPGPU-Sim uArch: Shader 10 finished CTA #5 (32360,16899), 5 CTAs running
GPGPU-Sim uArch: core: 10, cta: 5 initialized @(32361,16899)
GPGPU-Sim uArch: Shader 13 finished CTA #2 (32434,16899), 5 CTAs running
GPGPU-Sim uArch: core: 13, cta: 2 initialized @(32435,16899)
GPGPU-Sim PTX: 17500000 instructions simulated : ctaid=(11,9,0) tid=(152,0,0)
GPGPU-Sim uArch: cycles simulated: 49399  inst.: 16887102 (ipc=412.7) sim_rate=211088 (inst/sec) elapsed = 0:0:01:20 / Sun Mar 23 01:57:46 2014
GPGPU-Sim uArch: Shader 2 finished CTA #2 (32546,16899), 5 CTAs running
GPGPU-Sim uArch: core:  2, cta: 2 initialized @(32547,16899)
GPGPU-Sim uArch: Shader 4 finished CTA #1 (32657,16899), 5 CTAs running
GPGPU-Sim uArch: core:  4, cta: 1 initialized @(32658,16899)
GPGPU-Sim uArch: Shader 9 finished CTA #5 (32689,16899), 5 CTAs running
GPGPU-Sim uArch: core:  9, cta: 5 initialized @(32690,16899)
GPGPU-Sim PTX: 17600000 instructions simulated : ctaid=(16,9,0) tid=(18,0,0)
